@<TRIPOS>MOLECULE
tmp/1v1kA00.pdb
 188 179 0 0 0
SMALL
GASTEIGER

@<TRIPOS>ATOM
      1  N         15.1790  -16.6150    5.3960 N.3     9  LYS9       -0.1231
      2  CA        15.5870  -15.2100    5.3890 C.3     9  LYS9        0.1693
      3  C         14.4190  -14.3020    5.7590 C.2     9  LYS9        0.2592
      4  O         13.3340  -14.4190    5.2020 O.2     9  LYS9       -0.2718
      5  CB        16.1230  -14.8130    4.0140 C.3     9  LYS9        0.0285
      6  CG        16.6690  -13.3930    3.9360 C.3     9  LYS9        0.0035
      7  CD        16.9140  -12.9710    2.4880 C.3     9  LYS9        0.0206
      8  CE        18.2000  -12.1910    2.3390 C.3     9  LYS9        0.1093
      9  NZ        19.3610  -13.1110    2.4180 N.3     9  LYS9       -0.1314
     10  N         14.6620  -13.3950    6.6980 N.am   10  ILE10      -0.1966
     11  CA        13.6630  -12.4050    7.0990 C.3    10  ILE10       0.1730
     12  C         13.8370  -11.1500    6.2250 C.2    10  ILE10       0.2656
     13  O         12.8650  -10.5300    5.7690 O.2    10  ILE10      -0.2711
     14  CB        13.8310  -12.0540    8.6090 C.3    10  ILE10       0.0290
     15  CG1       13.4260  -13.2470    9.4990 C.3    10  ILE10       0.0022
     16  CG2       13.1070  -10.7210    8.9590 C.3    10  ILE10       0.0023
     17  CD1       13.4430  -12.9630   11.0120 C.3    10  ILE10       0.0001
     18  N         15.0930  -10.7850    6.0010 N.am   11  GLY11      -0.1716
     19  CA        15.4060   -9.6110    5.2040 C.2    11  GLY11       0.1480
     20  C         16.8850   -9.3100    5.0530 C.2    11  GLY11       0.2820
     21  O         17.7640  -10.0940    5.4630 O.2    11  GLY11      -0.2669
     22  N         17.1490   -8.1590    4.4480 N.am   12  GLU12      -0.1929
     23  CA        18.5030   -7.6950    4.2030 C.3    12  GLU12       0.1736
     24  C         18.5930   -6.2850    4.7390 C.2    12  GLU12       0.2617
     25  O         17.7480   -5.4220    4.4280 O.2    12  GLU12      -0.2715
     26  CB        18.8560   -7.7570    2.7070 C.3    12  GLU12       0.0429
     27  CG        20.2740   -7.3270    2.4530 C.3    12  GLU12       0.1163
     28  CD        20.7700   -7.5060    1.1340 C.2    12  GLU12       0.3649
     29  OE1       20.2900   -8.4410    0.4410 O.co2  12  GLU12      -0.2457
     30  OE2       21.5730   -6.6010    0.7440 O.co2  12  GLU12      -0.2457
     31  N         19.6030   -6.0660    5.5710 N.am   13  GLY13      -0.1955
     32  CA        19.7350   -4.8340    6.3250 C.3    13  GLY13       0.1869
     33  C         20.9540   -3.9920    5.9900 C.2    13  GLY13       0.2309
     34  O         21.9290   -4.4550    5.3630 O.2    13  GLY13      -0.2863
     35  N         23.9120   -5.8300    7.6620 N.3    16  GLY16      -0.1225
     36  CA        23.9560   -7.2860    7.7540 C.3    16  GLY16       0.1811
     37  C         22.6780   -7.9500    7.2690 C.2    16  GLY16       0.2280
     38  O         21.6360   -7.3080    7.2050 O.2    16  GLY16      -0.2866
     39  N         19.5390  -10.7110    7.8000 N.3    18  VAL18      -0.1245
     40  CA        18.7760  -11.2690    8.9450 C.3    18  VAL18       0.1561
     41  C         17.9330  -12.5190    8.6470 C.2    18  VAL18       0.2260
     42  O         17.1210  -12.5510    7.7110 O.2    18  VAL18      -0.2867
     43  CB        17.8670  -10.2060    9.6170 C.3    18  VAL18       0.0252
     44  CG1       17.1540  -10.7680   10.8900 C.3    18  VAL18       0.0019
     45  CG2       18.6620   -8.9380    9.9430 C.3    18  VAL18       0.0019
     46  N         15.7570  -14.0960   15.9120 N.3    31  ALA31      -0.1245
     47  CA        16.2450  -13.3980   14.7180 C.3    31  ALA31       0.1562
     48  C         17.7910  -13.2020   14.7400 C.2    31  ALA31       0.2260
     49  O         18.3550  -12.4650   15.5710 O.2    31  ALA31      -0.2867
     50  CB        15.5130  -12.0880   14.4820 C.3    31  ALA31       0.0290
     51  N         21.1820  -11.9270   13.0360 N.3    33  LYS33      -0.1245
     52  CA        21.6940  -10.9230   12.1250 C.3    33  LYS33       0.1561
     53  C         23.2190  -11.0500   11.9870 C.2    33  LYS33       0.2260
     54  O         23.9510  -10.8850   12.9610 O.2    33  LYS33      -0.2867
     55  CB        21.3000   -9.5360   12.6300 C.3    33  LYS33       0.0271
     56  CG        21.5330   -8.4090   11.6290 C.3    33  LYS33       0.0035
     57  CD        22.1000   -7.1690   12.3070 C.3    33  LYS33       0.0206
     58  CE        21.0290   -6.3970   13.0320 C.3    33  LYS33       0.1093
     59  NZ        20.8040   -5.1000   12.3390 N.3    33  LYS33      -0.1314
     60  N         12.7220   -4.5590   21.1680 N.3    55  VAL55      -0.1245
     61  CA        13.1730   -5.9360   20.9050 C.3    55  VAL55       0.1561
     62  C         14.5410   -6.2160   21.5580 C.2    55  VAL55       0.2260
     63  O         15.5630   -5.5690   21.2290 O.2    55  VAL55      -0.2867
     64  CB        13.2540   -6.2330   19.3650 C.3    55  VAL55       0.0252
     65  CG1       13.8510   -7.6300   19.0460 C.3    55  VAL55       0.0019
     66  CG2       11.9090   -6.0500   18.7240 C.3    55  VAL55       0.0019
     67  N         18.6990  -11.6060   18.3360 N.3    71  PHE71      -0.1227
     68  CA        17.5330  -10.8700   18.8180 C.3    71  PHE71       0.1736
     69  C         16.2970  -11.7210   19.1930 C.2    71  PHE71       0.2595
     70  O         16.0220  -12.7850   18.6300 O.2    71  PHE71      -0.2718
     71  CB        17.0880   -9.8110   17.7770 C.3    71  PHE71       0.0547
     72  CG        18.0390   -8.6410   17.6410 C.ar   71  PHE71      -0.0202
     73  CD1       18.0540   -7.6310   18.5900 C.ar   71  PHE71      -0.0042
     74  CD2       18.9280   -8.5620   16.5550 C.ar   71  PHE71      -0.0042
     75  CE1       18.9380   -6.5590   18.4750 C.ar   71  PHE71      -0.0003
     76  CE2       19.8010   -7.4940   16.4150 C.ar   71  PHE71      -0.0003
     77  CZ        19.8150   -6.4840   17.3900 C.ar   71  PHE71      -0.0000
     78  N         15.5160  -11.2010   20.1260 N.am   72  GLU72      -0.1965
     79  CA        14.2040  -11.7530   20.3910 C.3    72  GLU72       0.1733
     80  C         13.4080  -11.7550   19.0630 C.2    72  GLU72       0.2616
     81  O         13.4610  -10.7910   18.3040 O.2    72  GLU72      -0.2715
     82  CB        13.5450  -10.9220   21.4850 C.3    72  GLU72       0.0429
     83  CG        12.0360  -10.8000   21.3780 C.3    72  GLU72       0.1163
     84  CD        11.4400   -9.7090   22.2420 C.2    72  GLU72       0.3649
     85  OE1       12.1390   -8.7260   22.6370 O.co2  72  GLU72      -0.2457
     86  OE2       10.2210   -9.8550   22.5100 O.co2  72  GLU72      -0.2457
     87  N         12.7280  -12.8490   18.7480 N.am   73  PHE73      -0.1960
     88  CA        11.9750  -12.9260   17.4750 C.3    73  PHE73       0.1771
     89  C         10.4720  -12.6180   17.6090 C.2    73  PHE73       0.2619
     90  O          9.7970  -13.1770   18.4710 O.2    73  PHE73      -0.2715
     91  CB        12.1970  -14.3030   16.8180 C.3    73  PHE73       0.0574
     92  CG        11.3030  -14.5820   15.6390 C.ar   73  PHE73      -0.0200
     93  CD1       11.6760  -14.1740   14.3460 C.ar   73  PHE73      -0.0042
     94  CD2       10.1000  -15.2820   15.8000 C.ar   73  PHE73      -0.0042
     95  CE1       10.8570  -14.4190   13.2400 C.ar   73  PHE73      -0.0003
     96  CE2        9.2640  -15.5450   14.6970 C.ar   73  PHE73      -0.0003
     97  CZ         9.6500  -15.1040   13.4070 C.ar   73  PHE73      -0.0000
     98  N          9.9630  -11.7410   16.7410 N.am   74  LEU74      -0.1963
     99  CA         8.5230  -11.5690   16.5690 C.3    74  LEU74       0.1728
    100  C          8.0770  -11.9160   15.1460 C.2    74  LEU74       0.2616
    101  O          8.8340  -11.7690   14.1660 O.2    74  LEU74      -0.2715
    102  CB         8.0660  -10.1600   16.9470 C.3    74  LEU74       0.0311
    103  CG         7.9430   -9.8360   18.4450 C.3    74  LEU74       0.0022
    104  CD1        9.2800   -9.4160   18.9920 C.3    74  LEU74       0.0001
    105  CD2        6.9410   -8.7150   18.6910 C.3    74  LEU74       0.0001
    106  N          6.8180  -12.3380   15.0500 N.am   75  HIS75      -0.1959
    107  CA         6.2210  -12.9030   13.8250 C.3    75  HIS75       0.1787
    108  C          5.7950  -11.9300   12.7490 C.2    75  HIS75       0.2620
    109  O          5.8090  -12.3050   11.5740 O.2    75  HIS75      -0.2715
    110  CB         5.0190  -13.7940   14.1730 C.3    75  HIS75       0.0785
    111  CG         5.4040  -15.1650   14.6470 C.ar   75  HIS75       0.0821
    112  ND1        5.6720  -15.4450   15.9670 N.ar   75  HIS75      -0.2267
    113  CD2        5.5720  -16.3270   13.9730 C.ar   75  HIS75       0.1154
    114  CE1        5.9950  -16.7230   16.0870 C.ar   75  HIS75       0.1986
    115  NE2        5.9450  -17.2810   14.8910 N.ar   75  HIS75      -0.2212
    116  N          5.4330  -10.7000   13.1260 N.am   76  GLN76      -0.1963
    117  CA         4.9390   -9.7190   12.1370 C.3    76  GLN76       0.1733
    118  C          5.4280   -8.2790   12.3290 C.2    76  GLN76       0.2616
    119  O          5.6460   -7.8330   13.4520 O.2    76  GLN76      -0.2715
    120  CB         3.4050   -9.7410   12.0530 C.3    76  GLN76       0.0408
    121  CG         2.8840   -9.1370   10.7090 C.3    76  GLN76       0.0908
    122  CD         1.4840   -9.6080   10.3370 C.2    76  GLN76       0.2608
    123  OE1        0.5670   -8.7960   10.2760 O.2    76  GLN76      -0.2717
    124  NE2        1.3120  -10.9130   10.1160 N.am   76  GLN76      -0.0878
    125  N          5.5660   -7.5720   11.2100 N.am   77  ASP77      -0.1971
    126  CA         5.9660   -6.1610   11.1790 C.3    77  ASP77       0.1709
    127  C          4.7800   -5.2300   10.8290 C.2    77  ASP77       0.2293
    128  O          3.8200   -5.6440   10.1690 O.2    77  ASP77      -0.2864
    129  CB         7.1540   -5.9490   10.2160 C.3    77  ASP77       0.1436
    130  CG         6.7640   -6.0490    8.7280 C.2    77  ASP77       0.3671
    131  OD1        6.0560   -5.1550    8.2160 O.co2  77  ASP77      -0.2456
    132  OD2        7.1270   -6.9800    7.9740 O.co2  77  ASP77      -0.2456
    133  N          3.6090   -4.9810    6.9070 N.3    80  LYS80      -0.1245
    134  CA         2.6850   -6.0500    6.5010 C.3    80  LYS80       0.1561
    135  C          1.2820   -5.9140    7.1660 C.2    80  LYS80       0.2260
    136  O          0.2560   -6.1080    6.5230 O.2    80  LYS80      -0.2867
    137  CB         3.3000   -7.4290    6.7900 C.3    80  LYS80       0.0271
    138  CG         2.4610   -8.5680    6.2300 C.3    80  LYS80       0.0035
    139  CD         3.0640   -9.9670    6.4700 C.3    80  LYS80       0.0206
    140  CE         2.1030  -11.0400    5.9690 C.3    80  LYS80       0.1093
    141  NZ         2.7730  -12.3590    5.6540 N.3    80  LYS80      -0.1314
    142  N         10.9640    2.9920   10.6830 N.3   120  LYS120     -0.1245
    143  CA        10.0740    2.7900    9.5440 C.3   120  LYS120      0.1561
    144  C          9.0910    1.6380    9.8550 C.2   120  LYS120      0.2260
    145  O          9.3160    0.8680   10.7920 O.2   120  LYS120     -0.2867
    146  CB        10.8580    2.6050    8.2220 C.3   120  LYS120      0.0271
    147  CG        11.8890    1.4950    8.1830 C.3   120  LYS120      0.0035
    148  CD        12.8640    1.6690    7.0050 C.3   120  LYS120      0.0206
    149  CE        14.0800    0.8040    7.2390 C.3   120  LYS120      0.1093
    150  NZ        15.2460    1.1230    6.3850 N.3   120  LYS120     -0.1314
    151  N          8.6960   -1.0560    8.6780 N.3   122  GLN122     -0.1231
    152  CA         9.3560   -2.3480    8.4390 C.3   122  GLN122      0.1698
    153  C         10.1660   -2.8470    9.6420 C.2   122  GLN122      0.2592
    154  O         10.4260   -4.0450    9.7900 O.2   122  GLN122     -0.2718
    155  CB        10.2570   -2.2530    7.1990 C.3   122  GLN122      0.0381
    156  CG         9.5030   -2.0050    5.8580 C.3   122  GLN122      0.0905
    157  CD         9.1100   -0.5170    5.5650 C.2   122  GLN122      0.2608
    158  OE1        8.6180   -0.2240    4.4790 O.2   122  GLN122     -0.2717
    159  NE2        9.3150    0.3820    6.5100 N.am  122  GLN122     -0.0878
    160  N         10.5440   -1.9260   10.5200 N.am  123  ASN123     -0.1974
    161  CA        11.2760   -2.3100   11.7250 C.3   123  ASN123      0.1688
    162  C         10.5160   -2.0520   13.0420 C.2   123  ASN123      0.2292
    163  O         11.1080   -1.9420   14.1140 O.2   123  ASN123     -0.2864
    164  CB        12.7410   -1.8080   11.6960 C.3   123  ASN123      0.1181
    165  CG        12.8620   -0.2940   11.7020 C.2   123  ASN123      0.2629
    166  OD1       11.9580    0.4190   12.1790 O.2   123  ASN123     -0.2716
    167  ND2       14.0090    0.2120   11.2090 N.am  123  ASN123     -0.0877
    168  N          7.7330   -3.9980   15.2980 N.3   125  LEU125     -0.1245
    169  CA         7.2640   -5.3760   15.4100 C.3   125  LEU125      0.1561
    170  C          6.1030   -5.5050   16.3820 C.2   125  LEU125      0.2260
    171  O          6.1480   -4.9250   17.4590 O.2   125  LEU125     -0.2867
    172  CB         8.4200   -6.2760   15.8290 C.3   125  LEU125      0.0270
    173  CG         9.7180   -6.1600   15.0150 C.3   125  LEU125      0.0019
    174  CD1       10.6780   -7.2690   15.4170 C.3   125  LEU125      0.0001
    175  CD2        9.5060   -6.1630   13.4720 C.3   125  LEU125      0.0001
    176  N         12.8010   -2.3170   16.7120 N.3   135  ALA135     -0.1231
    177  CA        13.8700   -3.2330   16.2780 C.3   135  ALA135      0.1694
    178  C         14.8940   -2.4730   15.4170 C.2   135  ALA135      0.2592
    179  O         14.6130   -1.3420   14.9930 O.2   135  ALA135     -0.2718
    180  CB        13.2750   -4.4030   15.5120 C.3   135  ALA135      0.0304
    181  N         16.0490   -3.0960   15.1340 N.am  136  ASP136     -0.1974
    182  CA        17.2500   -2.4350   14.5120 C.3   136  ASP136      0.1709
    183  C         17.7200   -1.2020   15.2870 C.2   136  ASP136      0.2293
    184  O         18.4080   -0.3280   14.7420 O.2   136  ASP136     -0.2864
    185  CB        17.0590   -2.0580   13.0260 C.3   136  ASP136      0.1436
    186  CG        17.4830   -3.1880   12.0340 C.2   136  ASP136      0.3671
    187  OD1       18.4220   -3.9670   12.3170 O.co2 136  ASP136     -0.2456
    188  OD2       16.9230   -3.3400   10.9110 O.co2 136  ASP136     -0.2456
@<TRIPOS>BOND
     1    29    28   ar
     2    30    28   ar
     3    28    27    1
     4     8     9    1
     5     8     7    1
     6    27    26    1
     7     7     6    1
     8    26    23    1
     9     6     5    1
    10     5     2    1
    11    23    22    1
    12    23    24    1
    13    25    24    2
    14    22    20   am
    15   158   157    2
    16    24    31   am
    17    20    19    1
    18    20    21    2
    19     4     3    2
    20    19    18    2
    21    34    33    2
    22     2     1    1
    23     2     3    1
    24   157   156    1
    25   157   159   am
    26    31    32    1
    27   141   140    1
    28     3    10   am
    29    13    12    2
    30   156   155    1
    31   140   139    1
    32    33    32    1
    33    18    12    1
    34    12    11    1
    35   138   139    1
    36   138   137    1
    37   150   149    1
    38   134   137    1
    39   134   133    1
    40   134   135    1
    41   136   135    2
    42    10    11    1
    43   148   149    1
    44   148   147    1
    45    11    14    1
    46   155   152    1
    47    38    37    2
    48    37    36    1
    49    35    36    1
    50    42    41    2
    51    39    40    1
    52   132   130   ar
    53   147   146    1
    54   131   130   ar
    55   146   143    1
    56   152   151    1
    57   152   153    1
    58    14    16    1
    59    14    15    1
    60    41    40    1
    61   130   129    1
    62    40    43    1
    63    15    17    1
    64   143   144    1
    65   143   142    1
    66    43    45    1
    67    43    44    1
    68   153   154    2
    69   153   160   am
    70   144   145    2
    71   124   122   am
    72   128   127    2
    73   129   126    1
    74   123   122    2
    75   122   121    1
    76   160   161    1
    77   121   120    1
    78   127   126    1
    79   188   186   ar
    80   126   125    1
    81   167   165   am
    82   125   118   am
    83   109   108    2
    84    56    57    1
    85    56    55    1
    86   164   165    1
    87   164   161    1
    88   165   166    2
    89   161   162    1
    90    53    52    1
    91    53    54    2
    92   186   187   ar
    93   186   185    1
    94   120   117    1
    95    52    55    1
    96    52    51    1
    97   117   118    1
    98   117   116    1
    99    57    58    1
   100   118   119    2
   101    59    58    1
   102   108   116   am
   103   108   107    1
   104   185   182    1
   105   162   163    2
   106    95    97   ar
   107    95    93   ar
   108    97    96   ar
   109   175   173    1
   110   107   110    1
   111   107   106    1
   112   113   111   ar
   113   113   115   ar
   114   101   100    2
   115   110   111    1
   116    93    92   ar
   117    50    47    1
   118   182   181    1
   119   182   183    1
   120   111   112   ar
   121    96    94   ar
   122    47    48    1
   123    47    46    1
   124    48    49    2
   125   184   183    2
   126   115   114   ar
   127   179   178    2
   128   173   174    1
   129   173   172    1
   130   106   100   am
   131   181   178   am
   132   100    99    1
   133   168   169    1
   134   169   172    1
   135   169   170    1
   136   178   177    1
   137   180   177    1
   138    92    94   ar
   139    92    91    1
   140   112   114   ar
   141   177   176    1
   142   170   171    2
   143    76    74   ar
   144    76    77   ar
   145    74    72   ar
   146    99    98    1
   147    99   102    1
   148    98    89   am
   149    91    88    1
   150   102   103    1
   151    77    75   ar
   152    88    89    1
   153    88    87    1
   154    89    90    2
   155    72    71    1
   156    72    73   ar
   157    71    68    1
   158    81    80    2
   159    67    68    1
   160   103   105    1
   161   103   104    1
   162    75    73   ar
   163    70    69    2
   164    66    64    1
   165    87    80   am
   166    68    69    1
   167    65    64    1
   168    80    79    1
   169    69    78   am
   170    64    61    1
   171    78    79    1
   172    79    82    1
   173    61    60    1
   174    61    62    1
   175    63    62    2
   176    83    82    1
   177    83    84    1
   178    84    86   ar
   179    84    85   ar
