@<TRIPOS>MOLECULE
tmp/1v1mA00.pdb
 156 149 0 0 0
SMALL
GASTEIGER

@<TRIPOS>ATOM
      1  N         75.4840   10.4440   -1.1130 N.3    82  MET82      -0.1245
      2  CA        74.1880    9.9460   -0.6860 C.3    82  MET82       0.1570
      3  C         73.1420   10.9420   -1.2050 C.2    82  MET82       0.2261
      4  O         73.2400   12.1500   -0.9310 O.2    82  MET82      -0.2867
      5  CB        74.0730    9.8570    0.8560 C.3    82  MET82       0.0387
      6  CG        75.0710    8.9030    1.6200 C.3    82  MET82       0.0595
      7  SD        74.7450    7.2080    1.0990 S.3    82  MET82      -0.1393
      8  CE        73.6370    6.6540    2.3790 C.3    82  MET82       0.0692
      9  N         63.1340   12.0280    0.0210 N.3    87  GLU87      -0.1245
     10  CA        63.2560   12.5820    1.3680 C.3    87  GLU87       0.1567
     11  C         63.1790   14.0890    1.3090 C.2    87  GLU87       0.2260
     12  O         63.4150   14.7700    2.3080 O.2    87  GLU87      -0.2867
     13  CB        64.5970   12.1510    2.0020 C.3    87  GLU87       0.0388
     14  CG        64.7210   10.6700    2.3790 C.3    87  GLU87       0.1160
     15  CD        63.8150   10.1990    3.5100 C.2    87  GLU87       0.3649
     16  OE1       63.2110   11.0140    4.3290 O.co2  87  GLU87      -0.2457
     17  OE2       63.6580    8.9450    3.5490 O.co2  87  GLU87      -0.2457
     18  N         71.8800   12.6910    9.9930 N.3   107  GLN107     -0.1231
     19  CA        72.9730   12.0790    9.2480 C.3   107  GLN107      0.1698
     20  C         72.9920   12.2870    7.7750 C.2   107  GLN107      0.2592
     21  O         73.3240   13.3780    7.3010 O.2   107  GLN107     -0.2718
     22  CB        73.1160   10.6230    9.5980 C.3   107  GLN107      0.0381
     23  CG        74.5070   10.0720    9.1120 C.3   107  GLN107      0.0905
     24  CD        74.9050    8.8650    9.8430 C.2   107  GLN107      0.2608
     25  OE1       74.4910    8.6970   11.0250 O.2   107  GLN107     -0.2717
     26  NE2       75.6420    7.9350    9.1660 N.am  107  GLN107     -0.0878
     27  N         72.6110   11.2910    7.0080 N.am  108  TYR108     -0.1962
     28  CA        72.9260   11.3710    5.5790 C.3   108  TYR108      0.1771
     29  C         71.7910   11.9240    4.7380 C.2   108  TYR108      0.2619
     30  O         72.0090   12.1810    3.5550 O.2   108  TYR108     -0.2715
     31  CB        73.2890    9.9830    5.0290 C.3   108  TYR108      0.0574
     32  CG        74.5990    9.4140    5.4350 C.ar  108  TYR108     -0.0198
     33  CD1       75.6930   10.2250    5.7190 C.ar  108  TYR108     -0.0009
     34  CD2       74.7850    8.0370    5.5070 C.ar  108  TYR108     -0.0009
     35  CE1       76.9530    9.6670    6.0590 C.ar  108  TYR108      0.0417
     36  CE2       76.0750    7.4830    5.7600 C.ar  108  TYR108      0.0417
     37  CZ        77.1270    8.3090    6.0800 C.ar  108  TYR108      0.1957
     38  OH        78.3530    7.7850    6.4180 O.3   108  TYR108     -0.2866
     39  N         70.5750   12.0130    5.2440 N.am  109  ARG109     -0.1977
     40  CA        69.4830   12.4100    4.3440 C.3   109  ARG109      0.1597
     41  C         68.9110   13.8060    4.6060 C.2   109  ARG109      0.2287
     42  O         67.7160   14.0660    4.3200 O.2   109  ARG109     -0.2864
     43  CB        68.3170   11.4540    4.4690 C.3   109  ARG109      0.0334
     44  CG        68.6770    9.9460    4.2840 C.3   109  ARG109      0.0492
     45  CD        69.1270    9.6220    2.8690 C.3   109  ARG109      0.2205
     46  NE        69.3990    8.1840    2.7870 N.pl3 109  ARG109     -0.0865
     47  CZ        69.9850    7.5780    1.7700 C.cat 109  ARG109      0.5346
     48  NH1       70.3430    8.2780    0.6920 N.pl3 109  ARG109      0.1354
     49  NH2       70.1960    6.2440    1.8190 N.pl3 109  ARG109      0.1354
     50  N         79.6840    9.4990   10.3220 N.3   157  SER157     -0.1203
     51  CA        79.2660    8.2350    9.6940 C.3   157  SER157      0.2005
     52  C         78.6830    7.2160   10.6750 C.2   157  SER157      0.2461
     53  O         77.8040    6.4630   10.2610 O.2   157  SER157     -0.2732
     54  CB        80.3980    7.5880    8.9310 C.3   157  SER157      0.2103
     55  OG        81.1720    8.5360    8.1940 O.3   157  SER157     -0.2182
     56  N         79.2010    7.0750   11.9000 N.am  158  PRO158     -0.2717
     57  CA        78.6280    6.0390   12.7760 C.3   158  PRO158      0.1535
     58  C         77.1540    6.2840   13.0510 C.2   158  PRO158      0.2598
     59  O         76.7520    7.3010   13.6480 O.2   158  PRO158     -0.2715
     60  CB        79.4580    6.1520   14.0330 C.3   158  PRO158      0.0310
     61  CG        80.7470    6.6830   13.5750 C.3   158  PRO158      0.0237
     62  CD        80.3360    7.7530   12.5580 C.3   158  PRO158      0.0939
     63  N         76.3270    5.3330   12.6660 N.am  159  LEU159     -0.1978
     64  CA        74.8960    5.5100   12.7710 C.3   159  LEU159      0.1596
     65  C         74.4040    5.6090   14.2140 C.2   159  LEU159      0.2287
     66  O         74.8760    4.8920   15.1100 O.2   159  LEU159     -0.2864
     67  CB        74.1540    4.3710   12.0670 C.3   159  LEU159      0.0297
     68  CG        74.2170    4.3660   10.5460 C.3   159  LEU159      0.0022
     69  CD1       73.8140    3.0060   10.0780 C.3   159  LEU159      0.0001
     70  CD2       73.3600    5.4750    9.8620 C.3   159  LEU159      0.0001
     71  N         67.2240    7.1760   10.4500 N.3   187  GLY187     -0.1210
     72  CA        66.4640    6.2110    9.7040 C.3   187  GLY187      0.1956
     73  C         65.9990    5.0690   10.5560 C.2   187  GLY187      0.2612
     74  O         66.4400    4.9200   11.7050 O.2   187  GLY187     -0.2717
     75  N         65.1370    4.2140    9.9780 N.am  188  GLU188     -0.1965
     76  CA        64.5370    3.1070   10.7190 C.3   188  GLU188      0.1733
     77  C         65.5840    2.0220   11.0440 C.2   188  GLU188      0.2617
     78  O         65.4720    1.3100   12.0510 O.2   188  GLU188     -0.2715
     79  CB        63.2610    2.5180   10.0170 C.3   188  GLU188      0.0429
     80  CG        63.4450    1.4060    8.9870 C.3   188  GLU188      0.1163
     81  CD        64.2530    1.8070    7.7540 C.2   188  GLU188      0.3649
     82  OE1       64.2140    3.0010    7.3720 O.co2 188  GLU188     -0.2457
     83  OE2       64.9790    0.9380    7.2060 O.co2 188  GLU188     -0.2457
     84  N         66.5850    1.8930   10.1810 N.am  189  GLY189     -0.1940
     85  CA        67.7180    1.0240   10.4260 C.3   189  GLY189      0.2014
     86  C         68.4880    1.4810   11.6400 C.2   189  GLY189      0.2638
     87  O         68.7540    0.7210   12.5390 O.2   189  GLY189     -0.2714
     88  N         68.8790    2.7490   11.6430 N.am  190  ALA190     -0.1977
     89  CA        69.6450    3.3370   12.7460 C.3   190  ALA190      0.1597
     90  C         68.9260    3.2010   14.0960 C.2   190  ALA190      0.2287
     91  O         69.6040    3.1180   15.1080 O.2   190  ALA190     -0.2864
     92  CB        69.9020    4.8160   12.4690 C.3   190  ALA190      0.0319
     93  N         70.0330    0.5940   16.6480 N.3   193  GLU193     -0.1245
     94  CA        71.2480    0.7270   17.4320 C.3   193  GLU193      0.1567
     95  C         70.9330    0.9360   18.9080 C.2   193  GLU193      0.2260
     96  O         69.9280    1.5580   19.2590 O.2   193  GLU193     -0.2867
     97  CB        72.1090    1.8780   16.9240 C.3   193  GLU193      0.0388
     98  CG        72.7370    1.6640   15.5720 C.3   193  GLU193      0.1160
     99  CD        73.9490    0.7610   15.5580 C.2   193  GLU193      0.3649
    100  OE1       74.1510    0.0760   16.5700 O.co2 193  GLU193     -0.2457
    101  OE2       74.6590    0.7170   14.4960 O.co2 193  GLU193     -0.2457
    102  N         62.9060    8.6170    9.7880 N.3   215  ARG215     -0.1245
    103  CA        62.5360    8.3870    8.4080 C.3   215  ARG215      0.1563
    104  C         62.4570    6.8820    8.1540 C.2   215  ARG215      0.2260
    105  O         63.4630    6.1870    8.1980 O.2   215  ARG215     -0.2867
    106  CB        63.5800    8.9440    7.4210 C.3   215  ARG215      0.0307
    107  CG        64.1920   10.3330    7.8000 C.3   215  ARG215      0.0489
    108  CD        65.6080   10.6260    7.3370 C.3   215  ARG215      0.2205
    109  NE        66.4320    9.4740    7.0430 N.pl3 215  ARG215     -0.0865
    110  CZ        67.6720    9.2900    7.4940 C.cat 215  ARG215      0.5346
    111  NH1       68.2970   10.1720    8.2730 N.pl3 215  ARG215      0.1354
    112  NH2       68.2890    8.1880    7.1650 N.pl3 215  ARG215      0.1354
    113  N         61.7690    4.4060    5.3430 N.3   217  ASN217     -0.1240
    114  CA        61.6320    4.1190    3.9270 C.3   217  ASN217      0.1653
    115  C         61.6530    2.5990    3.5790 C.2   217  ASN217      0.2266
    116  O         61.8470    2.2160    2.4390 O.2   217  ASN217     -0.2867
    117  CB        62.7250    4.8640    3.1770 C.3   217  ASN217      0.1155
    118  CG        64.1390    4.3940    3.5320 C.2   217  ASN217      0.2627
    119  OD1       64.3040    3.4600    4.3010 O.2   217  ASN217     -0.2716
    120  ND2       65.1490    5.1070    3.0300 N.am  217  ASN217     -0.0877
    121  N         63.8220    0.2160    4.1210 N.3   219  TYR219     -0.1227
    122  CA        65.1170   -0.4110    3.8730 C.3   219  TYR219      0.1736
    123  C         66.2670    0.2850    4.5450 C.2   219  TYR219      0.2595
    124  O         66.3070    1.4990    4.6610 O.2   219  TYR219     -0.2718
    125  CB        65.4470   -0.4490    2.3580 C.3   219  TYR219      0.0548
    126  CG        64.6420   -1.4260    1.6230 C.ar  219  TYR219     -0.0200
    127  CD1       63.3610   -1.0980    1.1630 C.ar  219  TYR219     -0.0009
    128  CD2       65.0980   -2.7120    1.4310 C.ar  219  TYR219     -0.0009
    129  CE1       62.5890   -2.0470    0.5040 C.ar  219  TYR219      0.0417
    130  CE2       64.3410   -3.6510    0.7960 C.ar  219  TYR219      0.0417
    131  CZ        63.1020   -3.3180    0.3360 C.ar  219  TYR219      0.1957
    132  OH        62.4010   -4.2990   -0.3250 O.3   219  TYR219     -0.2866
    133  N         67.2270   -0.5270    4.9520 N.am  220  ALA220     -0.1966
    134  CA        68.5420   -0.0890    5.3930 C.3   220  ALA220      0.1728
    135  C         69.5260   -0.8710    4.5310 C.2   220  ALA220      0.2616
    136  O         69.7810   -2.0690    4.7810 O.2   220  ALA220     -0.2715
    137  CB        68.7690   -0.4290    6.8650 C.3   220  ALA220      0.0334
    138  N         70.1090   -0.1750    3.5720 N.am  221  ILE221     -0.1977
    139  CA        70.8810   -0.7710    2.4590 C.3   221  ILE221      0.1596
    140  C         70.0460   -1.8650    1.8180 C.2   221  ILE221      0.2287
    141  O         69.0600   -1.5400    1.1730 O.2   221  ILE221     -0.2864
    142  CB        72.2870   -1.2270    2.8930 C.3   221  ILE221      0.0276
    143  CG1       72.9790   -0.1040    3.7100 C.3   221  ILE221      0.0022
    144  CG2       73.1300   -1.5480    1.6210 C.3   221  ILE221      0.0022
    145  CD1       74.4640   -0.3660    4.0260 C.3   221  ILE221      0.0001
    146  N         61.9050    4.3030   -0.7200 N.3   282  ARG282     -0.1245
    147  CA        63.2960    4.1140   -1.0870 C.3   282  ARG282      0.1563
    148  C         63.3290    4.3700   -2.5930 C.2   282  ARG282      0.2260
    149  O         62.6600    3.6690   -3.3410 O.2   282  ARG282     -0.2867
    150  CB        63.6660    2.6540   -0.7390 C.3   282  ARG282      0.0307
    151  CG        65.1130    2.2980   -0.7530 C.3   282  ARG282      0.0489
    152  CD        65.9750    3.3930   -0.1970 C.3   282  ARG282      0.2205
    153  NE        67.3920    3.1890   -0.4780 N.pl3 282  ARG282     -0.0865
    154  CZ        68.2920    4.1720   -0.4410 C.cat 282  ARG282      0.5346
    155  NH1       67.9030    5.4230   -0.1490 N.pl3 282  ARG282      0.1354
    156  NH2       69.5780    3.9150   -0.7230 N.pl3 282  ARG282      0.1354
@<TRIPOS>BOND
     1   149   148    2
     2   148   147    1
     3     3     4    2
     4     3     2    1
     5     1     2    1
     6   147   150    1
     7   147   146    1
     8   151   150    1
     9   151   152    1
    10   156   154    1
    11     2     5    1
    12   153   154    2
    13   153   152    1
    14   154   155    1
    15   132   131    1
    16     9    10    1
    17   131   129   ar
    18   131   130   ar
    19   129   127   ar
    20    48    47    1
    21   130   128   ar
    22     5     6    1
    23     7     6    1
    24     7     8    1
    25   127   126   ar
    26   141   140    2
    27    11    10    1
    28    11    12    2
    29    10    13    1
    30   128   126   ar
    31   144   142    1
    32   126   125    1
    33    47    49    1
    34    47    46    2
    35   140   139    1
    36    13    14    1
    37   125   122    1
    38    14    15    1
    39   116   115    2
    40   139   142    1
    41   139   138    1
    42    46    45    1
    43    45    44    1
    44   142   143    1
    45   120   118   am
    46   117   118    1
    47   117   114    1
    48    15    17   ar
    49    15    16   ar
    50   118   119    2
    51    30    29    2
    52   138   135   am
    53   115   114    1
    54   143   145    1
    55   122   121    1
    56   122   123    1
    57   114   113    1
    58    44    43    1
    59    42    41    2
    60    40    43    1
    61    40    41    1
    62    40    39    1
    63   135   136    2
    64   135   134    1
    65   123   124    2
    66   123   133   am
    67    29    39   am
    68    29    28    1
    69   133   134    1
    70    31    32    1
    71    31    28    1
    72   134   137    1
    73    32    34   ar
    74    32    33   ar
    75    34    36   ar
    76    28    27    1
    77    33    35   ar
    78    36    37   ar
    79    35    37   ar
    80    37    38    1
    81    27    20   am
    82   109   108    1
    83   109   110    2
    84   112   110    1
    85    83    81   ar
    86    21    20    2
    87   108   107    1
    88    82    81   ar
    89   106   107    1
    90   106   103    1
    91   110   111    1
    92    81    80    1
    93    20    19    1
    94   104   105    2
    95   104   103    1
    96    55    54    1
    97   103   102    1
    98    54    51    1
    99    80    79    1
   100    23    22    1
   101    23    24    1
   102    26    24   am
   103    19    22    1
   104    19    18    1
   105    51    50    1
   106    51    52    1
   107    72    71    1
   108    72    73    1
   109    24    25    2
   110    70    68    1
   111    75    73   am
   112    75    76    1
   113    79    76    1
   114    69    68    1
   115    84    85    1
   116    84    77   am
   117    53    52    2
   118    85    86    1
   119    68    67    1
   120    73    74    2
   121    52    56   am
   122    76    77    1
   123    77    78    2
   124    86    88   am
   125    86    87    2
   126    88    89    1
   127    56    62    1
   128    56    57    1
   129    67    64    1
   130    92    89    1
   131    62    61    1
   132    63    64    1
   133    63    58   am
   134    89    90    1
   135    64    65    1
   136    57    58    1
   137    57    60    1
   138    58    59    2
   139    61    60    1
   140    90    91    2
   141    65    66    2
   142   101    99   ar
   143    99    98    1
   144    99   100   ar
   145    98    97    1
   146    93    94    1
   147    97    94    1
   148    94    95    1
   149    95    96    2
