@<TRIPOS>MOLECULE
tmp/1v1tB00.pdb
 105 102 0 0 0
SMALL
GASTEIGER

@<TRIPOS>ATOM
      1  N          7.4120  -20.8870   54.7470 N.3    97  GLY97      -0.1210
      2  CA         8.4360  -19.9320   54.3550 C.3    97  GLY97       0.1956
      3  C          7.9620  -18.9870   53.2390 C.2    97  GLY97       0.2612
      4  O          8.7790  -18.3090   52.5890 O.2    97  GLY97      -0.2717
      5  N          6.6530  -18.9480   53.0000 N.am   98  HIS98      -0.1961
      6  CA         6.1190  -18.2100   51.8550 C.3    98  HIS98       0.1787
      7  C          5.4420  -16.9230   52.3100 C.2    98  HIS98       0.2620
      8  O          4.7720  -16.9140   53.3270 O.2    98  HIS98      -0.2715
      9  CB         5.1170  -19.0490   51.0680 C.3    98  HIS98       0.0785
     10  CG         5.6930  -20.2890   50.4760 C.ar   98  HIS98       0.0821
     11  ND1        5.0800  -21.5150   50.5860 N.ar   98  HIS98      -0.2267
     12  CD2        6.8520  -20.5060   49.8140 C.ar   98  HIS98       0.1154
     13  CE1        5.8250  -22.4330   49.9970 C.ar   98  HIS98       0.1986
     14  NE2        6.9050  -21.8460   49.5210 N.ar   98  HIS98      -0.2212
     15  N          5.6200  -15.8530   51.5400 N.am   99  VAL99      -0.1963
     16  CA         4.9350  -14.5760   51.7850 C.3    99  VAL99       0.1727
     17  C          3.6490  -14.4220   50.9630 C.2    99  VAL99       0.2617
     18  O          2.7470  -13.6890   51.3770 O.2    99  VAL99      -0.2715
     19  CB         5.8530  -13.3050   51.6270 C.3    99  VAL99       0.0290
     20  CG1        6.8660  -13.2060   52.7730 C.3    99  VAL99       0.0023
     21  CG2        6.5670  -13.2690   50.3320 C.3    99  VAL99       0.0023
     22  N          3.5600  -15.0880   49.8150 N.am  100  GLY100     -0.1940
     23  CA         2.3330  -15.1680   49.0430 C.3   100  GLY100      0.2014
     24  C          2.1980  -14.4590   47.7150 C.2   100  GLY100      0.2639
     25  O          1.1230  -13.9330   47.3670 O.2   100  GLY100     -0.2714
     26  N          3.2470  -14.4710   46.9140 N.am  101  PHE101     -0.1959
     27  CA         3.0880  -13.9580   45.5450 C.3   101  PHE101      0.1771
     28  C          3.9320  -14.7150   44.5460 C.2   101  PHE101      0.2619
     29  O          4.8530  -15.4540   44.9080 O.2   101  PHE101     -0.2715
     30  CB         3.3660  -12.4320   45.4550 C.3   101  PHE101      0.0574
     31  CG         4.7800  -12.0430   45.7160 C.ar  101  PHE101     -0.0200
     32  CD1        5.7100  -12.0040   44.6900 C.ar  101  PHE101     -0.0042
     33  CD2        5.1940  -11.6940   46.9840 C.ar  101  PHE101     -0.0042
     34  CE1        7.0200  -11.6210   44.9350 C.ar  101  PHE101     -0.0003
     35  CE2        6.4840  -11.3190   47.2460 C.ar  101  PHE101     -0.0003
     36  CZ         7.4330  -11.3030   46.1940 C.ar  101  PHE101     -0.0000
     37  N          3.5430  -14.5380   43.2850 N.am  102  ILE102     -0.1963
     38  CA         4.2080  -15.1330   42.1320 C.3   102  ILE102      0.1727
     39  C          4.8400  -13.9830   41.3660 C.2   102  ILE102      0.2616
     40  O          4.2210  -12.9250   41.2230 O.2   102  ILE102     -0.2715
     41  CB         3.1750  -15.8390   41.2460 C.3   102  ILE102      0.0290
     42  CG1        2.3930  -16.9070   42.0030 C.3   102  ILE102      0.0022
     43  CG2        3.8390  -16.4680   39.9800 C.3   102  ILE102      0.0023
     44  CD1        3.1820  -17.7600   42.7180 C.3   102  ILE102      0.0001
     45  N          6.0610  -14.1720   40.8860 N.am  103  PHE103     -0.1960
     46  CA         6.7150  -13.1630   40.0740 C.3   103  PHE103      0.1771
     47  C          7.4860  -13.7910   38.9110 C.2   103  PHE103      0.2619
     48  O          7.9060  -14.9520   38.9530 O.2   103  PHE103     -0.2715
     49  CB         7.6240  -12.2550   40.9100 C.3   103  PHE103      0.0574
     50  CG         8.9070  -12.8800   41.3370 C.ar  103  PHE103     -0.0200
     51  CD1       10.0550  -12.7730   40.5580 C.ar  103  PHE103     -0.0042
     52  CD2        8.9940  -13.5730   42.5220 C.ar  103  PHE103     -0.0042
     53  CE1       11.2310  -13.3680   40.9490 C.ar  103  PHE103     -0.0003
     54  CE2       10.1850  -14.1510   42.9210 C.ar  103  PHE103     -0.0003
     55  CZ        11.2990  -14.0430   42.1530 C.ar  103  PHE103     -0.0000
     56  N          7.6640  -12.9780   37.8730 N.am  104  LYS104     -0.1977
     57  CA         8.3790  -13.4030   36.6760 C.3   104  LYS104      0.1596
     58  C          9.1020  -12.1840   36.1350 C.2   104  LYS104      0.2287
     59  O          8.5130  -11.1070   36.0280 O.2   104  LYS104     -0.2864
     60  CB         7.4030  -13.9910   35.6450 C.3   104  LYS104      0.0298
     61  CG         8.1110  -14.7100   34.4750 C.3   104  LYS104      0.0038
     62  CD         7.0630  -15.3900   33.6540 C.3   104  LYS104      0.0206
     63  CE         7.6040  -16.0140   32.4130 C.3   104  LYS104      0.1093
     64  NZ         6.4620  -16.7470   31.7870 N.3   104  LYS104     -0.1314
     65  N          3.2280  -10.9450   39.4970 N.3   109  THR109     -0.1218
     66  CA         2.1440  -11.3330   38.5990 C.3   109  THR109      0.1862
     67  C          0.9010  -11.9410   39.1990 C.2   109  THR109      0.2287
     68  O         -0.1620  -11.8840   38.5650 O.2   109  THR109     -0.2866
     69  CB         2.6910  -12.2610   37.4900 C.3   109  THR109      0.1770
     70  OG1        3.2640  -13.4340   38.0560 O.3   109  THR109     -0.2211
     71  CG2        3.8590  -11.5990   36.7640 C.3   109  THR109      0.0375
     72  N         -1.1060  -14.7570   46.1370 N.3   112  VAL112     -0.1245
     73  CA        -1.6050  -16.0410   46.6280 C.3   112  VAL112      0.1561
     74  C         -2.7010  -15.8230   47.6820 C.2   112  VAL112      0.2260
     75  O         -2.5480  -14.9910   48.5780 O.2   112  VAL112     -0.2867
     76  CB        -0.4450  -16.8880   47.1820 C.3   112  VAL112      0.0252
     77  CG1       -0.9530  -18.1500   47.8040 C.3   112  VAL112      0.0019
     78  CG2        0.5370  -17.2000   46.0790 C.3   112  VAL112      0.0019
     79  N         15.7540  -13.9640   38.4130 N.3   141  ASP141     -0.1225
     80  CA        14.6120  -14.3500   39.2510 C.3   141  ASP141      0.1805
     81  C         15.0640  -15.3490   40.3350 C.2   141  ASP141      0.2598
     82  O         14.6690  -15.2520   41.4920 O.2   141  ASP141     -0.2718
     83  CB        13.5030  -14.9670   38.4090 C.3   141  ASP141      0.1424
     84  CG        12.6890  -13.9520   37.6570 C.2   141  ASP141      0.3668
     85  OD1       12.7590  -12.7300   37.9530 O.co2 141  ASP141     -0.2456
     86  OD2       11.9420  -14.3020   36.7110 O.co2 141  ASP141     -0.2456
     87  N         15.9270  -16.2850   39.9610 N.am  142  SER142     -0.1952
     88  CA        16.4560  -17.2490   40.9170 C.3   142  SER142      0.1924
     89  C         17.2200  -16.5770   42.0510 C.2   142  SER142      0.2314
     90  O         17.1520  -17.0450   43.1790 O.2   142  SER142     -0.2863
     91  CB        17.3570  -18.2890   40.2130 C.3   142  SER142      0.2116
     92  OG        18.5400  -17.7080   39.6700 O.3   142  SER142     -0.2180
     93  N         14.6310  -14.8940   44.3740 N.3   145  ALA145     -0.1245
     94  CA        14.0640  -15.9240   45.2520 C.3   145  ALA145      0.1562
     95  C         15.0520  -16.3480   46.3440 C.2   145  ALA145      0.2260
     96  O         14.6590  -16.6260   47.4990 O.2   145  ALA145     -0.2867
     97  CB        13.6150  -17.1240   44.4480 C.3   145  ALA145      0.0290
     98  N         15.0800  -13.7040   49.0000 N.3   148  LEU148     -0.1245
     99  CA        13.8510  -13.7910   49.8060 C.3   148  LEU148      0.1561
    100  C         13.9540  -14.9010   50.8680 C.2   148  LEU148      0.2260
    101  O         13.5860  -14.7100   52.0350 O.2   148  LEU148     -0.2867
    102  CB        12.6620  -14.0760   48.9170 C.3   148  LEU148      0.0270
    103  CG        12.0440  -12.8630   48.2580 C.3   148  LEU148      0.0019
    104  CD1       11.1740  -13.3100   47.1230 C.3   148  LEU148      0.0001
    105  CD2       11.2550  -12.0110   49.2890 C.3   148  LEU148      0.0001
@<TRIPOS>BOND
     1    64    63    1
     2    63    62    1
     3    62    61    1
     4    61    60    1
     5    60    57    1
     6    59    58    2
     7    58    57    1
     8    57    56    1
     9    86    84   ar
    10    71    69    1
    11    69    70    1
    12    69    66    1
    13    84    85   ar
    14    84    83    1
    15    56    47   am
    16    83    80    1
    17    79    80    1
    18    68    67    2
    19    66    67    1
    20    66    65    1
    21    47    48    2
    22    47    46    1
    23    80    81    1
    24    92    91    1
    25    87    81   am
    26    87    88    1
    27    43    41    1
    28    46    45    1
    29    46    49    1
    30    91    88    1
    31    81    82    2
    32    51    53   ar
    33    51    50   ar
    34    45    39   am
    35    49    50    1
    36    88    89    1
    37    53    55   ar
    38    40    39    2
    39    41    42    1
    40    41    38    1
    41    50    52   ar
    42    39    38    1
    43    42    44    1
    44    89    90    2
    45    38    37    1
    46    55    54   ar
    47    52    54   ar
    48    37    28   am
    49    93    94    1
    50    97    94    1
    51    28    29    2
    52    28    27    1
    53    32    34   ar
    54    32    31   ar
    55    34    36   ar
    56    94    95    1
    57    30    27    1
    58    30    31    1
    59    27    26    1
    60    31    33   ar
    61    78    76    1
    62    72    73    1
    63    36    35   ar
    64    95    96    2
    65    73    76    1
    66    73    74    1
    67    26    24   am
    68    33    35   ar
    69   104   103    1
    70    76    77    1
    71    25    24    2
    72    74    75    2
    73    24    23    1
    74   103   102    1
    75   103   105    1
    76   102    99    1
    77    98    99    1
    78    23    22    1
    79    14    12   ar
    80    14    13   ar
    81    99   100    1
    82    12    10   ar
    83    22    17   am
    84    13    11   ar
    85    21    19    1
    86    10    11   ar
    87    10     9    1
    88   100   101    2
    89    17    18    2
    90    17    16    1
    91     9     6    1
    92    15    16    1
    93    15     7   am
    94    19    16    1
    95    19    20    1
    96     6     7    1
    97     6     5    1
    98     7     8    2
    99     4     3    2
   100     5     3   am
   101     3     2    1
   102     2     1    1
