@<TRIPOS>MOLECULE
tmp/1v26A01.pdb
 187 180 0 0 0
SMALL
GASTEIGER

@<TRIPOS>ATOM
      1  N         23.8540   -9.0670   78.3370 N.3   177  THR177     -0.1218
      2  CA        24.9610   -9.3770   77.4390 C.3   177  THR177      0.1862
      3  C         25.6250  -10.7040   77.8030 C.2   177  THR177      0.2287
      4  O         25.7980  -11.0210   78.9820 O.2   177  THR177     -0.2866
      5  CB        25.9910   -8.2160   77.3870 C.3   177  THR177      0.1770
      6  OG1       27.1690   -8.6420   76.6870 O.3   177  THR177     -0.2211
      7  CG2       26.5020   -7.8490   78.7850 C.3   177  THR177      0.0375
      8  N         19.4120   -7.0420   69.5600 N.3   223  HIS223     -0.1226
      9  CA        20.7980   -6.6030   69.7310 C.3   223  HIS223      0.1752
     10  C         20.8190   -5.1240   70.1110 C.2   223  HIS223      0.2595
     11  O         20.7620   -4.2550   69.2370 O.2   223  HIS223     -0.2718
     12  CB        21.6020   -6.8080   68.4450 C.3   223  HIS223      0.0759
     13  CG        22.1630   -8.1870   68.2870 C.ar  223  HIS223      0.0818
     14  ND1       23.0800   -8.5060   67.3080 N.ar  223  HIS223     -0.2268
     15  CD2       21.9370   -9.3310   68.9760 C.ar  223  HIS223      0.1154
     16  CE1       23.3940   -9.7860   67.4010 C.ar  223  HIS223      0.1986
     17  NE2       22.7120  -10.3100   68.4040 N.ar  223  HIS223     -0.2212
     18  N         20.9090   -4.8470   71.4120 N.am  224  VAL224     -0.1980
     19  CA        20.8650   -3.4780   71.9460 C.3   224  VAL224      0.1595
     20  C         19.7830   -2.6360   71.2590 C.2   224  VAL224      0.2287
     21  O         20.0520   -1.5290   70.7810 O.2   224  VAL224     -0.2864
     22  CB        22.2370   -2.7490   71.8690 C.3   224  VAL224      0.0276
     23  CG1       22.3920   -1.7800   73.0370 C.3   224  VAL224      0.0022
     24  CG2       23.3960   -3.7390   71.8400 C.3   224  VAL224      0.0022
     25  N         20.3420   -1.4370   67.7670 N.3   227  TRP227     -0.1241
     26  CA        21.2210   -0.2660   67.8330 C.3   227  TRP227      0.1605
     27  C         20.4510    1.0580   67.8970 C.2   227  TRP227      0.2264
     28  O         20.9510    2.1000   67.4610 O.2   227  TRP227     -0.2867
     29  CB        22.2400   -0.2720   66.6770 C.3   227  TRP227      0.0550
     30  CG        23.1230   -1.4960   66.6420 C.ar  227  TRP227      0.0003
     31  CD1       23.3750   -2.3600   67.6710 C.ar  227  TRP227      0.0946
     32  CD2       23.8670   -1.9910   65.5190 C.ar  227  TRP227      0.0152
     33  NE1       24.2270   -3.3570   67.2590 N.ar  227  TRP227     -0.2442
     34  CE2       24.5450   -3.1560   65.9430 C.ar  227  TRP227      0.0810
     35  CE3       24.0290   -1.5710   64.1930 C.ar  227  TRP227      0.0012
     36  CZ2       25.3700   -3.9000   65.0920 C.ar  227  TRP227      0.0191
     37  CZ3       24.8500   -2.3090   63.3490 C.ar  227  TRP227      0.0001
     38  CH2       25.5070   -3.4610   63.8020 C.ar  227  TRP227      0.0015
     39  N         28.6650   -2.5820   62.3380 N.3   294  GLY294     -0.1210
     40  CA        29.0470   -2.6120   63.7390 C.3   294  GLY294      0.1956
     41  C         28.9890   -4.0010   64.3500 C.2   294  GLY294      0.2612
     42  O         28.6810   -4.9810   63.6640 O.2   294  GLY294     -0.2717
     43  N         29.2870   -4.0860   65.6460 N.am  295  GLY295     -0.1942
     44  CA        29.3010   -5.3550   66.3550 C.3   295  GLY295      0.2014
     45  C         30.6790   -5.9880   66.3850 C.2   295  GLY295      0.2640
     46  O         31.0780   -6.6020   67.3800 O.2   295  GLY295     -0.2714
     47  N         31.4050   -5.8290   65.2840 N.am  296  SER296     -0.1935
     48  CA        32.7440   -6.3780   65.1300 C.3   296  SER296      0.2055
     49  C         33.5540   -5.4970   64.1810 C.2   296  SER296      0.2642
     50  O         32.9880   -4.6880   63.4410 O.2   296  SER296     -0.2714
     51  CB        32.6590   -7.8040   64.5830 C.3   296  SER296      0.2130
     52  OG        33.8720   -8.4990   64.7800 O.3   296  SER296     -0.2179
     53  N         34.8740   -5.6530   64.2060 N.am  297  ALA297     -0.1977
     54  CA        35.7530   -4.8700   63.3420 C.3   297  ALA297      0.1597
     55  C         35.4930   -5.1610   61.8660 C.2   297  ALA297      0.2287
     56  O         35.6350   -6.2990   61.4100 O.2   297  ALA297     -0.2864
     57  CB        37.2140   -5.1350   63.6890 C.3   297  ALA297      0.0319
     58  N         31.6560    2.8830   59.8330 N.3   315  GLN315     -0.1231
     59  CA        31.7830    1.9940   60.9760 C.3   315  GLN315      0.1698
     60  C         31.2480    2.6610   62.2380 C.2   315  GLN315      0.2593
     61  O         31.3580    3.8780   62.4060 O.2   315  GLN315     -0.2718
     62  CB        33.2460    1.5780   61.1680 C.3   315  GLN315      0.0381
     63  CG        33.4680    0.5520   62.2740 C.3   315  GLN315      0.0905
     64  CD        34.7120   -0.2970   62.0740 C.2   315  GLN315      0.2608
     65  OE1       35.7090    0.1600   61.5110 O.2   315  GLN315     -0.2717
     66  NE2       34.6570   -1.5340   62.5450 N.am  315  GLN315     -0.0878
     67  N         30.6590    1.8480   63.1110 N.am  316  GLY316     -0.1942
     68  CA        30.2000    2.2930   64.4110 C.3   316  GLY316      0.2014
     69  C         30.5740    1.2730   65.4720 C.2   316  GLY316      0.2639
     70  O         30.7050    0.0800   65.1760 O.2   316  GLY316     -0.2714
     71  N         30.7300    1.7370   66.7100 N.am  317  TYR317     -0.1959
     72  CA        31.1620    0.8760   67.8070 C.3   317  TYR317      0.1771
     73  C         30.3800    1.1610   69.0820 C.2   317  TYR317      0.2620
     74  O         30.0530    2.3130   69.3750 O.2   317  TYR317     -0.2715
     75  CB        32.6660    1.0490   68.0460 C.3   317  TYR317      0.0574
     76  CG        33.1550    0.7060   69.4400 C.ar  317  TYR317     -0.0198
     77  CD1       33.4700   -0.6080   69.7860 C.ar  317  TYR317     -0.0009
     78  CD2       33.3170    1.6970   70.4070 C.ar  317  TYR317     -0.0009
     79  CE1       33.9260   -0.9290   71.0590 C.ar  317  TYR317      0.0417
     80  CE2       33.7710    1.3870   71.6890 C.ar  317  TYR317      0.0417
     81  CZ        34.0740    0.0710   72.0060 C.ar  317  TYR317      0.1957
     82  OH        34.5290   -0.2490   73.2670 O.3   317  TYR317     -0.2866
     83  N         30.0960    0.0990   69.8350 N.am  318  GLY318     -0.1940
     84  CA        29.3970    0.2090   71.1000 C.3   318  GLY318      0.2014
     85  C         29.1350   -1.1250   71.7720 C.2   318  GLY318      0.2639
     86  O         29.4880   -2.1850   71.2470 O.2   318  GLY318     -0.2714
     87  N         28.5020   -1.0620   72.9400 N.am  319  LEU319     -0.1963
     88  CA        28.2210   -2.2380   73.7520 C.3   319  LEU319      0.1728
     89  C         26.7710   -2.2360   74.2260 C.2   319  LEU319      0.2617
     90  O         26.1110   -1.1980   74.2220 O.2   319  LEU319     -0.2715
     91  CB        29.1430   -2.2570   74.9770 C.3   319  LEU319      0.0311
     92  CG        30.6540   -2.4090   74.8010 C.3   319  LEU319      0.0022
     93  CD1       31.3390   -1.0580   74.7010 C.3   319  LEU319      0.0001
     94  CD2       31.2240   -3.2030   75.9590 C.3   319  LEU319      0.0001
     95  N         26.2870   -3.4010   74.6510 N.am  320  THR320     -0.1937
     96  CA        24.9850   -3.5040   75.3100 C.3   320  THR320      0.2028
     97  C         24.9400   -2.5080   76.4680 C.2   320  THR320      0.2642
     98  O         23.9010   -1.9140   76.7580 O.2   320  THR320     -0.2714
     99  CB        24.7590   -4.9410   75.8400 C.3   320  THR320      0.1808
    100  OG1       24.9010   -5.8840   74.7690 O.3   320  THR320     -0.2208
    101  CG2       23.3200   -5.1380   76.2830 C.3   320  THR320      0.0379
    102  N         26.0920   -2.3210   77.1060 N.am  321  GLU321     -0.1976
    103  CA        26.2330   -1.4240   78.2460 C.3   321  GLU321      0.1602
    104  C         26.2060    0.0630   77.8790 C.2   321  GLU321      0.2287
    105  O         26.1530    0.9170   78.7680 O.2   321  GLU321     -0.2864
    106  CB        27.5320   -1.7450   78.9950 C.3   321  GLU321      0.0415
    107  CG        27.5360   -3.0970   79.6930 C.3   321  GLU321      0.1163
    108  CD        28.1990   -4.1910   78.8740 C.2   321  GLU321      0.3649
    109  OE1       28.9370   -5.0030   79.4730 O.co2 321  GLU321     -0.2457
    110  OE2       27.9850   -4.2480   77.6390 O.co2 321  GLU321     -0.2457
    111  N         23.6350    1.3870   71.9320 N.3   324  PRO324     -0.2116
    112  CA        25.0420    1.0870   72.2270 C.3   324  PRO324      0.1372
    113  C         26.0580    2.1350   71.7470 C.2   324  PRO324      0.2244
    114  O         27.1840    2.1290   72.2380 O.2   324  PRO324     -0.2868
    115  CB        25.2660   -0.1810   71.4060 C.3   324  PRO324      0.0268
    116  CG        24.3150   -0.0070   70.1890 C.3   324  PRO324      0.0207
    117  CD        23.3290    1.1160   70.5160 C.3   324  PRO324      0.0892
    118  N         38.0280    2.3760   63.8390 N.3   350  THR350     -0.1218
    119  CA        36.7740    2.3680   64.5910 C.3   350  THR350      0.1862
    120  C         35.9840    3.6760   64.4360 C.2   350  THR350      0.2287
    121  O         34.7740    3.6500   64.1970 O.2   350  THR350     -0.2866
    122  CB        37.0510    2.0520   66.0730 C.3   350  THR350      0.1770
    123  OG1       37.7960    0.8300   66.1660 O.3   350  THR350     -0.2211
    124  CG2       35.7600    1.7350   66.8050 C.3   350  THR350      0.0375
    125  N         37.9410   -3.4180   76.1060 N.3   411  ASP411     -0.1239
    126  CA        38.5180   -3.3700   74.7620 C.3   411  ASP411      0.1674
    127  C         39.8570   -2.6420   74.7470 C.2   411  ASP411      0.2266
    128  O         39.9660   -1.5190   75.2460 O.2   411  ASP411     -0.2867
    129  CB        37.5620   -2.6810   73.7790 C.3   411  ASP411      0.1410
    130  CG        36.2450   -3.4200   73.6210 C.2   411  ASP411      0.3668
    131  OD1       36.2660   -4.6600   73.4720 O.co2 411  ASP411     -0.2456
    132  OD2       35.1410   -2.8370   73.6260 O.co2 411  ASP411     -0.2456
    133  N         40.0370   -0.0340   67.7210 N.3   423  ILE423     -0.1245
    134  CA        40.0110   -1.2410   68.5400 C.3   423  ILE423      0.1561
    135  C         41.0310   -2.2450   68.0090 C.2   423  ILE423      0.2260
    136  O         40.9920   -2.6230   66.8360 O.2   423  ILE423     -0.2867
    137  CB        38.5870   -1.8660   68.5620 C.3   423  ILE423      0.0252
    138  CG1       37.5230   -0.8240   68.9590 C.3   423  ILE423      0.0019
    139  CG2       38.5450   -3.1040   69.4640 C.3   423  ILE423      0.0019
    140  CD1       37.6210   -0.2860   70.3930 C.3   423  ILE423      0.0001
    141  N         41.1200   -7.3350   72.8950 N.3   426  ARG426     -0.1245
    142  CA        40.0990   -7.4930   73.9190 C.3   426  ARG426      0.1563
    143  C         40.7350   -8.0040   75.2070 C.2   426  ARG426      0.2260
    144  O         41.4890   -8.9790   75.1860 O.2   426  ARG426     -0.2867
    145  CB        39.0400   -8.4850   73.4380 C.3   426  ARG426      0.0307
    146  CG        37.6070   -8.0160   73.5990 C.3   426  ARG426      0.0489
    147  CD        36.7080   -8.3260   72.4040 C.3   426  ARG426      0.2205
    148  NE        36.6270   -9.7580   72.1140 N.pl3 426  ARG426     -0.0865
    149  CZ        36.4030  -10.2740   70.9090 C.cat 426  ARG426      0.5346
    150  NH1       36.2290   -9.4830   69.8550 N.pl3 426  ARG426      0.1354
    151  NH2       36.3500  -11.5900   70.7560 N.pl3 426  ARG426      0.1354
    152  N         38.8440   -9.0030   77.8750 N.3   428  LYS428     -0.1245
    153  CA        37.9730  -10.1410   78.1290 C.3   428  LYS428      0.1561
    154  C         38.2540  -11.2380   77.1100 C.2   428  LYS428      0.2260
    155  O         38.3640  -10.9740   75.9110 O.2   428  LYS428     -0.2867
    156  CB        36.5030   -9.7110   78.0680 C.3   428  LYS428      0.0271
    157  CG        36.2840   -8.2980   77.5320 C.3   428  LYS428      0.0035
    158  CD        34.9030   -8.1290   76.9220 C.3   428  LYS428      0.0206
    159  CE        34.8880   -6.9810   75.9210 C.3   428  LYS428      0.1093
    160  NZ        33.6050   -6.9030   75.1690 N.3   428  LYS428     -0.1314
    161  N         33.6740  -13.9390   69.2560 N.3   432  LYS432     -0.1245
    162  CA        32.4710  -13.4270   68.6110 C.3   432  LYS432      0.1561
    163  C         32.3590  -13.9750   67.1940 C.2   432  LYS432      0.2260
    164  O         33.0900  -13.5540   66.2930 O.2   432  LYS432     -0.2867
    165  CB        32.4480  -11.8950   68.6100 C.3   432  LYS432      0.0271
    166  CG        31.0490  -11.3000   68.4770 C.3   432  LYS432      0.0035
    167  CD        31.0400   -9.8170   68.8160 C.3   432  LYS432      0.0206
    168  CE        29.6220   -9.2830   68.9390 C.3   432  LYS432      0.1093
    169  NZ        29.5890   -7.8790   69.4350 N.3   432  LYS432     -0.1314
    170  N         28.4770  -12.1960   64.9820 N.3   435  GLY435     -0.1225
    171  CA        27.7450  -11.2560   65.8130 C.3   435  GLY435      0.1811
    172  C         27.2580  -11.8110   67.1410 C.2   435  GLY435      0.2280
    173  O         26.6530  -11.0830   67.9300 O.2   435  GLY435     -0.2866
    174  N         28.1620  -14.1640   70.7830 N.3   437  TRP437     -0.1241
    175  CA        29.2610  -14.4670   71.7030 C.3   437  TRP437      0.1605
    176  C         29.4160  -15.9490   72.0440 C.2   437  TRP437      0.2264
    177  O         28.4360  -16.6900   72.1350 O.2   437  TRP437     -0.2867
    178  CB        29.0970  -13.6790   73.0060 C.3   437  TRP437      0.0550
    179  CG        29.3680  -12.2120   72.8830 C.ar  437  TRP437      0.0003
    180  CD1       28.4580  -11.2000   72.9890 C.ar  437  TRP437      0.0946
    181  CD2       30.6350  -11.5850   72.6440 C.ar  437  TRP437      0.0152
    182  NE1       29.0760   -9.9840   72.8260 N.ar  437  TRP437     -0.2442
    183  CE2       30.4150  -10.1910   72.6130 C.ar  437  TRP437      0.0810
    184  CE3       31.9390  -12.0610   72.4460 C.ar  437  TRP437      0.0012
    185  CZ2       31.4440   -9.2700   72.3960 C.ar  437  TRP437      0.0191
    186  CZ3       32.9620  -11.1450   72.2300 C.ar  437  TRP437      0.0001
    187  CH2       32.7060   -9.7650   72.2070 C.ar  437  TRP437      0.0015
@<TRIPOS>BOND
     1    58    59    1
     2    59    62    1
     3    59    60    1
     4    62    63    1
     5    56    55    2
     6    65    64    2
     7    55    54    1
     8    64    63    1
     9    64    66   am
    10    60    61    2
    11    60    67   am
    12    39    40    1
    13    67    68    1
    14    54    57    1
    15    54    53    1
    16    37    38   ar
    17    37    35   ar
    18    50    49    2
    19    42    41    2
    20    40    41    1
    21    38    36   ar
    22   118   119    1
    23    49    53   am
    24    49    48    1
    25    35    32   ar
    26   121   120    2
    27    41    43   am
    28    68    69    1
    29   120   119    1
    30    51    52    1
    31    51    48    1
    32   119   122    1
    33   170   171    1
    34    36    34   ar
    35    48    47    1
    36    70    69    2
    37    47    45   am
    38    69    71   am
    39    32    34   ar
    40    32    30   ar
    41    43    44    1
    42   171   172    1
    43    34    33   ar
    44   122   123    1
    45   122   124    1
    46   164   163    2
    47    44    45    1
    48    45    46    2
    49    30    29    1
    50    30    31   ar
    51    29    26    1
    52    71    72    1
    53   136   135    2
    54   172   173    2
    55   163   162    1
    56    33    31   ar
    57    14    16   ar
    58    14    13   ar
    59    16    17   ar
    60    28    27    2
    61   133   134    1
    62    25    26    1
    63    72    75    1
    64    72    73    1
    65    26    27    1
    66   135   134    1
    67    75    76    1
    68    13    12    1
    69    13    15   ar
    70    17    15   ar
    71    12     9    1
    72   166   165    1
    73   166   167    1
    74   134   137    1
    75   137   138    1
    76   137   139    1
    77   165   162    1
    78   162   161    1
    79   167   168    1
    80   168   169    1
    81   138   140    1
    82    73    74    2
    83    73    83   am
    84    11    10    2
    85    76    77   ar
    86    76    78   ar
    87     8     9    1
    88     9    10    1
    89    77    79   ar
    90    83    84    1
    91   150   149    1
    92    10    18   am
    93   116   117    1
    94   116   115    1
    95    78    80   ar
    96   117   111    1
    97   151   149    1
    98    21    20    2
    99   174   175    1
   100   149   148    2
   101    79    81   ar
   102    84    85    1
   103    86    85    2
   104    20    19    1
   105   115   112    1
   106    18    19    1
   107    80    81   ar
   108   175   176    1
   109   175   178    1
   110   113   112    1
   111   113   114    2
   112    85    87   am
   113    24    22    1
   114    22    19    1
   115    22    23    1
   116   111   112    1
   117    81    82    1
   118   176   177    2
   119   148   147    1
   120   187   186   ar
   121   187   185   ar
   122   186   184   ar
   123   185   183   ar
   124   147   146    1
   125   184   181   ar
   126   183   181   ar
   127   183   182   ar
   128   181   179   ar
   129   182   180   ar
   130   179   180   ar
   131   179   178    1
   132   141   142    1
   133    87    88    1
   134   145   146    1
   135   145   142    1
   136   131   130   ar
   137   130   132   ar
   138   130   129    1
   139    88    89    1
   140    88    91    1
   141   129   126    1
   142   142   143    1
   143    90    89    2
   144    89    95   am
   145    95    96    1
   146    93    92    1
   147   127   126    1
   148   127   128    2
   149   126   125    1
   150   100    99    1
   151    92    91    1
   152    92    94    1
   153   160   159    1
   154   144   143    2
   155    96    99    1
   156    96    97    1
   157    99   101    1
   158   155   154    2
   159   159   158    1
   160    97    98    2
   161    97   102   am
   162     6     5    1
   163   158   157    1
   164   102   103    1
   165   154   153    1
   166     5     2    1
   167     5     7    1
   168     2     3    1
   169     2     1    1
   170   157   156    1
   171   110   108   ar
   172     3     4    2
   173   152   153    1
   174   104   103    1
   175   104   105    2
   176   156   153    1
   177   103   106    1
   178   108   109   ar
   179   108   107    1
   180   106   107    1
