@<TRIPOS>MOLECULE
tmp/1v26A00.pdb
 204 197 0 0 0
SMALL
GASTEIGER

@<TRIPOS>ATOM
      1  N         20.4750    9.3480   73.0530 N.3   197  HIS197     -0.1226
      2  CA        21.2580    8.4780   72.1820 C.3   197  HIS197      0.1752
      3  C         20.7700    8.5330   70.7320 C.2   197  HIS197      0.2596
      4  O         21.5780    8.5800   69.8000 O.2   197  HIS197     -0.2718
      5  CB        21.2140    7.0410   72.7160 C.3   197  HIS197      0.0759
      6  CG        21.9010    6.0410   71.8400 C.ar  197  HIS197      0.0818
      7  ND1       21.2860    5.4570   70.7540 N.ar  197  HIS197     -0.2268
      8  CD2       23.1450    5.5120   71.8990 C.ar  197  HIS197      0.1154
      9  CE1       22.1240    4.6150   70.1760 C.ar  197  HIS197      0.1986
     10  NE2       23.2590    4.6290   70.8520 N.ar  197  HIS197     -0.2212
     11  N         19.4510    8.5280   70.5530 N.am  198  SER198     -0.1952
     12  CA        18.8450    8.5820   69.2260 C.3   198  SER198      0.1924
     13  C         19.1470    9.9000   68.5140 C.2   198  SER198      0.2314
     14  O         19.3550    9.9170   67.3010 O.2   198  SER198     -0.2863
     15  CB        17.3300    8.3650   69.3110 C.3   198  SER198      0.2116
     16  OG        17.0180    7.0650   69.7860 O.3   198  SER198     -0.2180
     17  N         23.2780   10.2590   67.6500 N.3   201  ALA201     -0.1231
     18  CA        23.7650    9.3140   66.6460 C.3   201  ALA201      0.1694
     19  C         23.1460    9.5460   65.2650 C.2   201  ALA201      0.2592
     20  O         23.5670    8.9300   64.2760 O.2   201  ALA201     -0.2718
     21  CB        23.5310    7.8830   67.1040 C.3   201  ALA201      0.0304
     22  N         22.1590   10.4400   65.2060 N.am  202  SER202     -0.1952
     23  CA        21.4410   10.7350   63.9660 C.3   202  SER202      0.1924
     24  C         21.9710   11.9640   63.2280 C.2   202  SER202      0.2314
     25  O         21.5020   12.2790   62.1350 O.2   202  SER202     -0.2863
     26  CB        19.9410   10.8980   64.2340 C.3   202  SER202      0.2116
     27  OG        19.3560    9.6720   64.6350 O.3   202  SER202     -0.2180
     28  N         24.7310    8.8450   61.5040 N.3   207  THR207     -0.1218
     29  CA        23.8980    8.1530   60.5180 C.3   207  THR207      0.1862
     30  C         23.2130    9.0960   59.5350 C.2   207  THR207      0.2287
     31  O         22.8110    8.6700   58.4540 O.2   207  THR207     -0.2866
     32  CB        22.8310    7.2860   61.2040 C.3   207  THR207      0.1770
     33  OG1       22.0570    8.0930   62.1010 O.3   207  THR207     -0.2211
     34  CG2       23.4750    6.2540   62.1010 C.3   207  THR207      0.0375
     35  N         20.2010   10.5350   59.7060 N.3   209  LEU209     -0.1245
     36  CA        18.8310   10.0920   59.4660 C.3   209  LEU209      0.1561
     37  C         17.8980   11.2500   59.1300 C.2   209  LEU209      0.2260
     38  O         17.8950   12.2810   59.8050 O.2   209  LEU209     -0.2867
     39  CB        18.2950    9.3030   60.6620 C.3   209  LEU209      0.0270
     40  CG        18.6720    7.8220   60.7600 C.3   209  LEU209      0.0019
     41  CD1       17.7020    7.1000   61.6880 C.3   209  LEU209      0.0001
     42  CD2       18.7220    7.1350   59.3940 C.3   209  LEU209      0.0001
     43  N         19.4120   -7.0420   69.5600 N.3   223  HIS223     -0.1226
     44  CA        20.7980   -6.6030   69.7310 C.3   223  HIS223      0.1752
     45  C         20.8190   -5.1240   70.1110 C.2   223  HIS223      0.2595
     46  O         20.7620   -4.2550   69.2370 O.2   223  HIS223     -0.2718
     47  CB        21.6020   -6.8080   68.4450 C.3   223  HIS223      0.0759
     48  CG        22.1630   -8.1870   68.2870 C.ar  223  HIS223      0.0818
     49  ND1       23.0800   -8.5060   67.3080 N.ar  223  HIS223     -0.2268
     50  CD2       21.9370   -9.3310   68.9760 C.ar  223  HIS223      0.1154
     51  CE1       23.3940   -9.7860   67.4010 C.ar  223  HIS223      0.1986
     52  NE2       22.7120  -10.3100   68.4040 N.ar  223  HIS223     -0.2212
     53  N         20.9090   -4.8470   71.4120 N.am  224  VAL224     -0.1980
     54  CA        20.8650   -3.4780   71.9460 C.3   224  VAL224      0.1595
     55  C         19.7830   -2.6360   71.2590 C.2   224  VAL224      0.2287
     56  O         20.0520   -1.5290   70.7810 O.2   224  VAL224     -0.2864
     57  CB        22.2370   -2.7490   71.8690 C.3   224  VAL224      0.0276
     58  CG1       22.3920   -1.7800   73.0370 C.3   224  VAL224      0.0022
     59  CG2       23.3960   -3.7390   71.8400 C.3   224  VAL224      0.0022
     60  N         20.3420   -1.4370   67.7670 N.3   227  TRP227     -0.1227
     61  CA        21.2210   -0.2660   67.8330 C.3   227  TRP227      0.1737
     62  C         20.4510    1.0580   67.8970 C.2   227  TRP227      0.2596
     63  O         20.9510    2.1000   67.4610 O.2   227  TRP227     -0.2718
     64  CB        22.2400   -0.2720   66.6770 C.3   227  TRP227      0.0564
     65  CG        23.1230   -1.4960   66.6420 C.ar  227  TRP227      0.0003
     66  CD1       23.3750   -2.3600   67.6710 C.ar  227  TRP227      0.0946
     67  CD2       23.8670   -1.9910   65.5190 C.ar  227  TRP227      0.0152
     68  NE1       24.2270   -3.3570   67.2590 N.ar  227  TRP227     -0.2442
     69  CE2       24.5450   -3.1560   65.9430 C.ar  227  TRP227      0.0810
     70  CE3       24.0290   -1.5710   64.1930 C.ar  227  TRP227      0.0012
     71  CZ2       25.3700   -3.9000   65.0920 C.ar  227  TRP227      0.0191
     72  CZ3       24.8500   -2.3090   63.3490 C.ar  227  TRP227      0.0001
     73  CH2       25.5070   -3.4610   63.8020 C.ar  227  TRP227      0.0015
     74  N         19.2360    1.0010   68.4470 N.am  228  CYS228     -0.1956
     75  CA        18.3420    2.1570   68.5700 C.3   228  CYS228      0.1843
     76  C         17.8440    2.6990   67.2280 C.2   228  CYS228      0.2625
     77  O         17.2370    3.7750   67.1740 O.2   228  CYS228     -0.2714
     78  CB        19.0000    3.2820   69.3820 C.3   228  CYS228      0.0997
     79  SG        18.3430    3.5190   71.0490 S.3   228  CYS228     -0.0797
     80  N         18.0890    1.9490   66.1540 N.am  229  LEU229     -0.1977
     81  CA        17.6860    2.3610   64.8090 C.3   229  LEU229      0.1596
     82  C         16.1720    2.5730   64.6330 C.2   229  LEU229      0.2287
     83  O         15.7700    3.5840   64.0580 O.2   229  LEU229     -0.2864
     84  CB        18.2210    1.3910   63.7500 C.3   229  LEU229      0.0297
     85  CG        19.0730    1.9320   62.5980 C.3   229  LEU229      0.0022
     86  CD1       19.0340    0.9610   61.4250 C.3   229  LEU229      0.0001
     87  CD2       18.6410    3.3250   62.1590 C.3   229  LEU229      0.0001
     88  N         15.2060    5.9070   66.3010 N.3   232  ALA232     -0.1245
     89  CA        15.7110    7.0770   65.5890 C.3   232  ALA232      0.1562
     90  C         15.0350    7.2780   64.2320 C.2   232  ALA232      0.2260
     91  O         14.8640    8.4140   63.7840 O.2   232  ALA232     -0.2867
     92  CB        17.2220    6.9940   65.4330 C.3   232  ALA232      0.0290
     93  N         19.2090    3.7470   53.5980 N.3   263  PHE263     -0.1241
     94  CA        20.1010    3.5430   54.7340 C.3   263  PHE263      0.1605
     95  C         19.8670    2.1750   55.3610 C.2   263  PHE263      0.2264
     96  O         18.7220    1.7550   55.5320 O.2   263  PHE263     -0.2867
     97  CB        19.8870    4.6370   55.7900 C.3   263  PHE263      0.0534
     98  CG        20.6380    4.4000   57.0760 C.ar  263  PHE263     -0.0203
     99  CD1       20.0970    3.6030   58.0800 C.ar  263  PHE263     -0.0042
    100  CD2       21.8890    4.9700   57.2810 C.ar  263  PHE263     -0.0042
    101  CE1       20.7910    3.3730   59.2660 C.ar  263  PHE263     -0.0003
    102  CE2       22.5890    4.7500   58.4690 C.ar  263  PHE263     -0.0003
    103  CZ        22.0370    3.9520   59.4630 C.ar  263  PHE263     -0.0000
    104  N         21.8460   -0.9170   58.3390 N.3   265  ALA265     -0.1245
    105  CA        22.8440   -1.1940   59.3760 C.3   265  ALA265      0.1562
    106  C         22.8040   -2.6500   59.8350 C.2   265  ALA265      0.2260
    107  O         21.7300   -3.2070   60.0690 O.2   265  ALA265     -0.2867
    108  CB        22.6470   -0.2600   60.5640 C.3   265  ALA265      0.0290
    109  N         25.8920    1.1210   57.3600 N.3   292  VAL292     -0.1245
    110  CA        26.5740    1.1380   58.6480 C.3   292  VAL292      0.1561
    111  C         26.9310   -0.2830   59.0720 C.2   292  VAL292      0.2260
    112  O         26.1190   -1.1980   58.9470 O.2   292  VAL292     -0.2867
    113  CB        25.7200    1.8390   59.7440 C.3   292  VAL292      0.0252
    114  CG1       26.1900    1.4610   61.1410 C.3   292  VAL292      0.0019
    115  CG2       25.7670    3.3440   59.5710 C.3   292  VAL292      0.0019
    116  N         28.6650   -2.5820   62.3380 N.3   294  GLY294     -0.1210
    117  CA        29.0470   -2.6120   63.7390 C.3   294  GLY294      0.1956
    118  C         28.9890   -4.0010   64.3500 C.2   294  GLY294      0.2612
    119  O         28.6810   -4.9810   63.6640 O.2   294  GLY294     -0.2717
    120  N         29.2870   -4.0860   65.6460 N.am  295  GLY295     -0.1956
    121  CA        29.3010   -5.3550   66.3550 C.3   295  GLY295      0.1869
    122  C         30.6790   -5.9880   66.3850 C.2   295  GLY295      0.2309
    123  O         31.0780   -6.6020   67.3800 O.2   295  GLY295     -0.2863
    124  N         30.6590    1.8480   63.1110 N.3   316  GLY316     -0.1210
    125  CA        30.2000    2.2930   64.4110 C.3   316  GLY316      0.1956
    126  C         30.5740    1.2730   65.4720 C.2   316  GLY316      0.2612
    127  O         30.7050    0.0800   65.1760 O.2   316  GLY316     -0.2717
    128  N         30.7300    1.7370   66.7100 N.am  317  TYR317     -0.1962
    129  CA        31.1620    0.8760   67.8070 C.3   317  TYR317      0.1771
    130  C         30.3800    1.1610   69.0820 C.2   317  TYR317      0.2620
    131  O         30.0530    2.3130   69.3750 O.2   317  TYR317     -0.2715
    132  CB        32.6660    1.0490   68.0460 C.3   317  TYR317      0.0574
    133  CG        33.1550    0.7060   69.4400 C.ar  317  TYR317     -0.0198
    134  CD1       33.4700   -0.6080   69.7860 C.ar  317  TYR317     -0.0009
    135  CD2       33.3170    1.6970   70.4070 C.ar  317  TYR317     -0.0009
    136  CE1       33.9260   -0.9290   71.0590 C.ar  317  TYR317      0.0417
    137  CE2       33.7710    1.3870   71.6890 C.ar  317  TYR317      0.0417
    138  CZ        34.0740    0.0710   72.0060 C.ar  317  TYR317      0.1957
    139  OH        34.5290   -0.2490   73.2670 O.3   317  TYR317     -0.2866
    140  N         30.0960    0.0990   69.8350 N.am  318  GLY318     -0.1940
    141  CA        29.3970    0.2090   71.1000 C.3   318  GLY318      0.2014
    142  C         29.1350   -1.1250   71.7720 C.2   318  GLY318      0.2639
    143  O         29.4880   -2.1850   71.2470 O.2   318  GLY318     -0.2714
    144  N         28.5020   -1.0620   72.9400 N.am  319  LEU319     -0.1963
    145  CA        28.2210   -2.2380   73.7520 C.3   319  LEU319      0.1728
    146  C         26.7710   -2.2360   74.2260 C.2   319  LEU319      0.2616
    147  O         26.1110   -1.1980   74.2220 O.2   319  LEU319     -0.2715
    148  CB        29.1430   -2.2570   74.9770 C.3   319  LEU319      0.0311
    149  CG        30.6540   -2.4090   74.8010 C.3   319  LEU319      0.0022
    150  CD1       31.3390   -1.0580   74.7010 C.3   319  LEU319      0.0001
    151  CD2       31.2240   -3.2030   75.9590 C.3   319  LEU319      0.0001
    152  N         26.2870   -3.4010   74.6510 N.am  320  THR320     -0.1951
    153  CA        24.9850   -3.5040   75.3100 C.3   320  THR320      0.1897
    154  C         24.9400   -2.5080   76.4680 C.2   320  THR320      0.2313
    155  O         23.9010   -1.9140   76.7580 O.2   320  THR320     -0.2863
    156  CB        24.7590   -4.9410   75.8400 C.3   320  THR320      0.1794
    157  OG1       24.9010   -5.8840   74.7690 O.3   320  THR320     -0.2208
    158  CG2       23.3200   -5.1380   76.2830 C.3   320  THR320      0.0378
    159  N         23.6350    1.3870   71.9320 N.3   324  PRO324     -0.2102
    160  CA        25.0420    1.0870   72.2270 C.3   324  PRO324      0.1504
    161  C         26.0580    2.1350   71.7470 C.2   324  PRO324      0.2575
    162  O         27.1840    2.1290   72.2380 O.2   324  PRO324     -0.2718
    163  CB        25.2660   -0.1810   71.4060 C.3   324  PRO324      0.0282
    164  CG        24.3150   -0.0070   70.1890 C.3   324  PRO324      0.0208
    165  CD        23.3290    1.1160   70.5160 C.3   324  PRO324      0.0893
    166  N         25.6690    3.0040   70.8140 N.am  325  VAL325     -0.1980
    167  CA        26.6180    3.8440   70.0730 C.3   325  VAL325      0.1595
    168  C         27.3990    4.8480   70.9150 C.2   325  VAL325      0.2287
    169  O         26.8160    5.6710   71.6240 O.2   325  VAL325     -0.2864
    170  CB        25.9330    4.6040   68.9050 C.3   325  VAL325      0.0276
    171  CG1       26.9770    5.2300   67.9870 C.3   325  VAL325      0.0022
    172  CG2       25.0170    3.6810   68.1190 C.3   325  VAL325      0.0022
    173  N         31.4720    6.6480   66.1140 N.3   328  GLN328     -0.1245
    174  CA        31.0700    6.5400   64.7140 C.3   328  GLN328      0.1566
    175  C         32.1740    7.0700   63.8120 C.2   328  GLN328      0.2260
    176  O         32.8110    8.0780   64.1210 O.2   328  GLN328     -0.2867
    177  CB        29.7670    7.3000   64.4530 C.3   328  GLN328      0.0367
    178  CG        28.5250    6.6240   65.0090 C.3   328  GLN328      0.0905
    179  CD        27.2600    7.4220   64.7560 C.2   328  GLN328      0.2608
    180  OE1       26.4290    7.0310   63.9390 O.2   328  GLN328     -0.2717
    181  NE2       27.1120    8.5420   65.4510 N.am  328  GLN328     -0.0878
    182  N         33.6740  -13.9390   69.2560 N.3   432  LYS432     -0.1245
    183  CA        32.4710  -13.4270   68.6110 C.3   432  LYS432      0.1561
    184  C         32.3590  -13.9750   67.1940 C.2   432  LYS432      0.2260
    185  O         33.0900  -13.5540   66.2930 O.2   432  LYS432     -0.2867
    186  CB        32.4480  -11.8950   68.6100 C.3   432  LYS432      0.0271
    187  CG        31.0490  -11.3000   68.4770 C.3   432  LYS432      0.0035
    188  CD        31.0400   -9.8170   68.8160 C.3   432  LYS432      0.0206
    189  CE        29.6220   -9.2830   68.9390 C.3   432  LYS432      0.1093
    190  NZ        29.5890   -7.8790   69.4350 N.3   432  LYS432     -0.1314
    191  N         28.1620  -14.1640   70.7830 N.3   437  TRP437     -0.1241
    192  CA        29.2610  -14.4670   71.7030 C.3   437  TRP437      0.1605
    193  C         29.4160  -15.9490   72.0440 C.2   437  TRP437      0.2264
    194  O         28.4360  -16.6900   72.1350 O.2   437  TRP437     -0.2867
    195  CB        29.0970  -13.6790   73.0060 C.3   437  TRP437      0.0550
    196  CG        29.3680  -12.2120   72.8830 C.ar  437  TRP437      0.0003
    197  CD1       28.4580  -11.2000   72.9890 C.ar  437  TRP437      0.0946
    198  CD2       30.6350  -11.5850   72.6440 C.ar  437  TRP437      0.0152
    199  NE1       29.0760   -9.9840   72.8260 N.ar  437  TRP437     -0.2442
    200  CE2       30.4150  -10.1910   72.6130 C.ar  437  TRP437      0.0810
    201  CE3       31.9390  -12.0610   72.4460 C.ar  437  TRP437      0.0012
    202  CZ2       31.4440   -9.2700   72.3960 C.ar  437  TRP437      0.0191
    203  CZ3       32.9620  -11.1450   72.2300 C.ar  437  TRP437      0.0001
    204  CH2       32.7060   -9.7650   72.2070 C.ar  437  TRP437      0.0015
@<TRIPOS>BOND
     1    93    94    1
     2    94    95    1
     3    94    97    1
     4    95    96    2
     5    97    98    1
     6    98   100   ar
     7    98    99   ar
     8   100   102   ar
     9   109   110    1
    10    99   101   ar
    11   104   105    1
    12    31    30    2
    13   102   103   ar
    14   110   111    1
    15   110   113    1
    16   112   111    2
    17    37    36    1
    18    37    38    2
    19   101   103   ar
    20   105   106    1
    21   105   108    1
    22    42    40    1
    23    36    35    1
    24    36    39    1
    25    30    29    1
    26   115   113    1
    27   113   114    1
    28   106   107    2
    29    29    32    1
    30    29    28    1
    31    39    40    1
    32    40    41    1
    33    32    33    1
    34    32    34    1
    35    86    85    1
    36    25    24    2
    37    87    85    1
    38   116   117    1
    39    85    84    1
    40   124   125    1
    41    24    23    1
    42    72    73   ar
    43    72    70   ar
    44   119   118    2
    45   117   118    1
    46    84    81    1
    47    91    90    2
    48    73    71   ar
    49   175   176    2
    50   175   174    1
    51   180   179    2
    52    23    26    1
    53    23    22    1
    54    83    82    2
    55    70    67   ar
    56    90    89    1
    57    26    27    1
    58    20    19    2
    59   118   120   am
    60   125   126    1
    61   177   174    1
    62   177   178    1
    63    82    81    1
    64   174   173    1
    65   179   178    1
    66   179   181   am
    67    81    80    1
    68    71    69   ar
    69   127   126    2
    70    22    19   am
    71    19    18    1
    72    92    89    1
    73   126   128   am
    74    67    69   ar
    75    67    65   ar
    76    89    88    1
    77   120   121    1
    78    69    68   ar
    79    80    76   am
    80   185   184    2
    81   121   122    1
    82   122   123    2
    83    65    64    1
    84    65    66   ar
    85    18    21    1
    86    18    17    1
    87    64    61    1
    88   128   129    1
    89    77    76    2
    90   184   183    1
    91    76    75    1
    92    68    66   ar
    93    14    13    2
    94    49    51   ar
    95    49    48   ar
    96    51    52   ar
    97    63    62    2
    98    60    61    1
    99   129   132    1
   100   129   130    1
   101    61    62    1
   102    62    74   am
   103   171   170    1
   104   132   133    1
   105   172   170    1
   106    48    47    1
   107    48    50   ar
   108    52    50   ar
   109    47    44    1
   110    74    75    1
   111   187   186    1
   112   187   188    1
   113    13    12    1
   114    75    78    1
   115   186   183    1
   116   183   182    1
   117   188   189    1
   118   170   167    1
   119   189   190    1
   120   130   131    2
   121   130   140   am
   122    12    15    1
   123    12    11    1
   124    46    45    2
   125    15    16    1
   126    78    79    1
   127   133   134   ar
   128   133   135   ar
   129    43    44    1
   130    44    45    1
   131   134   136   ar
   132     4     3    2
   133   140   141    1
   134   167   166    1
   135   167   168    1
   136    45    53   am
   137     9     7   ar
   138     9    10   ar
   139   164   165    1
   140   164   163    1
   141   135   137   ar
   142   165   159    1
   143    11     3   am
   144     3     2    1
   145     7     6   ar
   146    56    55    2
   147   191   192    1
   148   166   161   am
   149    10     8   ar
   150   168   169    2
   151   136   138   ar
   152   141   142    1
   153   143   142    2
   154    55    54    1
   155   163   160    1
   156    53    54    1
   157   137   138   ar
   158   192   193    1
   159   192   195    1
   160   161   160    1
   161   161   162    2
   162   142   144   am
   163     6     8   ar
   164     6     5    1
   165    59    57    1
   166    57    54    1
   167    57    58    1
   168   159   160    1
   169   138   139    1
   170   193   194    2
   171     2     5    1
   172     2     1    1
   173   204   203   ar
   174   204   202   ar
   175   203   201   ar
   176   202   200   ar
   177   201   198   ar
   178   200   198   ar
   179   200   199   ar
   180   198   196   ar
   181   199   197   ar
   182   196   197   ar
   183   196   195    1
   184   144   145    1
   185   145   146    1
   186   145   148    1
   187   147   146    2
   188   146   152   am
   189   152   153    1
   190   150   149    1
   191   157   156    1
   192   149   148    1
   193   149   151    1
   194   153   156    1
   195   153   154    1
   196   156   158    1
   197   154   155    2
