@<TRIPOS>MOLECULE
tmp/1v2aB00.pdb
 162 161 0 0 0
SMALL
GASTEIGER

@<TRIPOS>ATOM
      1  N        -28.6580  -17.0990   70.3240 N.3     8  ILE8       -0.1231
      2  CA       -28.4060  -15.7080   69.9900 C.3     8  ILE8        0.1692
      3  C        -28.7560  -15.5050   68.5220 C.2     8  ILE8        0.2593
      4  O        -29.0820  -14.3940   68.0890 O.2     8  ILE8       -0.2718
      5  CB       -26.9280  -15.3210   70.2240 C.3     8  ILE8        0.0266
      6  CG1      -26.5980  -15.3620   71.7180 C.3     8  ILE8        0.0019
      7  CG2      -26.6820  -13.9050   69.7320 C.3     8  ILE8        0.0020
      8  CD1      -26.7230  -16.7340   72.3670 C.3     8  ILE8        0.0001
      9  N        -28.6880  -16.5990   67.7660 N.am    9  SER9       -0.1939
     10  CA       -29.0040  -16.6000   66.3450 C.3     9  SER9        0.2040
     11  C        -30.5250  -16.6390   66.1640 C.2     9  SER9        0.2485
     12  O        -31.1800  -17.5990   66.5760 O.2     9  SER9       -0.2729
     13  CB       -28.3600  -17.8240   65.6760 C.3     9  SER9        0.2129
     14  OG       -28.8550  -18.0320   64.3640 O.3     9  SER9       -0.2179
     15  N        -31.1070  -15.5820   65.5710 N.am   10  PRO10      -0.2715
     16  CA       -32.5540  -15.5190   65.3470 C.3    10  PRO10       0.1521
     17  C        -33.0610  -16.6750   64.4620 C.2    10  PRO10       0.2440
     18  O        -34.1130  -17.2480   64.7210 O.2    10  PRO10      -0.2731
     19  CB       -32.7440  -14.1400   64.7090 C.3    10  PRO10       0.0310
     20  CG       -31.6430  -13.3300   65.3400 C.3    10  PRO10       0.0237
     21  CD       -30.4740  -14.2910   65.2430 C.3    10  PRO10       0.0939
     22  N        -32.3250  -17.0200   63.3970 N.am   11  PRO11      -0.2727
     23  CA       -32.7940  -18.1260   62.5570 C.3    11  PRO11       0.1402
     24  C        -32.9650  -19.4220   63.3660 C.2    11  PRO11       0.2269
     25  O        -33.9470  -20.1370   63.1930 O.2    11  PRO11      -0.2865
     26  CB       -31.6930  -18.2440   61.5000 C.3    11  PRO11       0.0296
     27  CG       -31.2240  -16.8310   61.3630 C.3    11  PRO11       0.0237
     28  CD       -31.1550  -16.3610   62.7920 C.3    11  PRO11       0.0939
     29  N        -20.2700  -20.9330   65.2350 N.3    33  VAL33      -0.1231
     30  CA       -19.9110  -21.0200   63.8240 C.3    33  VAL33       0.1692
     31  C        -18.7140  -20.1770   63.4330 C.2    33  VAL33       0.2592
     32  O        -18.2630  -20.2240   62.2900 O.2    33  VAL33      -0.2718
     33  CB       -21.1010  -20.6410   62.9120 C.3    33  VAL33       0.0266
     34  CG1      -22.1470  -21.7270   62.9600 C.3    33  VAL33       0.0020
     35  CG2      -21.6970  -19.3090   63.3490 C.3    33  VAL33       0.0020
     36  N        -18.1950  -19.4010   64.3750 N.am   34  HIS34      -0.1976
     37  CA       -17.0280  -18.5800   64.0880 C.3    34  HIS34       0.1656
     38  C        -15.7600  -19.3630   64.4230 C.2    34  HIS34       0.2291
     39  O        -14.7110  -19.1460   63.8190 O.2    34  HIS34      -0.2864
     40  CB       -17.0800  -17.2780   64.8860 C.3    34  HIS34       0.0771
     41  CG       -18.2680  -16.4270   64.5670 C.ar   34  HIS34       0.0820
     42  ND1      -19.5630  -16.8460   64.7870 N.ar   34  HIS34      -0.2267
     43  CD2      -18.3600  -15.1810   64.0450 C.ar   34  HIS34       0.1154
     44  CE1      -20.4010  -15.8950   64.4160 C.ar   34  HIS34       0.1986
     45  NE2      -19.6980  -14.8740   63.9630 N.ar   34  HIS34      -0.2212
     46  N        -16.2870  -24.8430   62.9920 N.3    39  ARG39      -0.1245
     47  CA       -16.6470  -24.5300   61.6200 C.3    39  ARG39       0.1563
     48  C        -16.3380  -25.7390   60.7350 C.2    39  ARG39       0.2260
     49  O        -17.2160  -26.2540   60.0430 O.2    39  ARG39      -0.2867
     50  CB       -15.8560  -23.3010   61.1650 C.3    39  ARG39       0.0307
     51  CG       -16.6660  -22.2160   60.4530 C.3    39  ARG39       0.0489
     52  CD       -16.5000  -22.2900   58.9410 C.3    39  ARG39       0.2205
     53  NE       -15.1400  -22.6820   58.5710 N.pl3  39  ARG39      -0.0865
     54  CZ       -14.0350  -22.0360   58.9440 C.cat  39  ARG39       0.5346
     55  NH1      -14.1190  -20.9480   59.6980 N.pl3  39  ARG39       0.1354
     56  NH2      -12.8450  -22.4980   58.5860 N.pl3  39  ARG39       0.1354
     57  N        -22.1930  -25.8220   53.8420 N.3    48  GLN48      -0.1231
     58  CA       -22.3490  -24.3730   53.9300 C.3    48  GLN48       0.1698
     59  C        -21.9510  -23.9170   55.3230 C.2    48  GLN48       0.2592
     60  O        -21.6580  -22.7470   55.5470 O.2    48  GLN48      -0.2718
     61  CB       -23.8010  -23.9620   53.6340 C.3    48  GLN48       0.0381
     62  CG       -24.0050  -22.4530   53.5380 C.3    48  GLN48       0.0905
     63  CD       -25.2860  -22.0610   52.8130 C.2    48  GLN48       0.2608
     64  OE1      -25.4650  -20.8990   52.4320 O.2    48  GLN48      -0.2717
     65  NE2      -26.1800  -23.0260   52.6150 N.am   48  GLN48      -0.0878
     66  N        -21.9370  -24.8720   56.2470 N.am   49  HIS49      -0.1962
     67  CA       -21.5860  -24.6470   57.6420 C.3    49  HIS49       0.1787
     68  C        -22.2550  -23.4160   58.2390 C.2    49  HIS49       0.2621
     69  O        -21.5990  -22.4450   58.6070 O.2    49  HIS49      -0.2715
     70  CB       -20.0550  -24.5790   57.8180 C.3    49  HIS49       0.0785
     71  CG       -19.3850  -23.5050   57.0150 C.ar   49  HIS49       0.0821
     72  ND1      -19.5580  -22.1610   57.2700 N.ar   49  HIS49      -0.2267
     73  CD2      -18.5250  -23.5810   55.9720 C.ar   49  HIS49       0.1154
     74  CE1      -18.8330  -21.4560   56.4210 C.ar   49  HIS49       0.1986
     75  NE2      -18.1980  -22.2930   55.6220 N.ar   49  HIS49      -0.2212
     76  N        -23.5780  -23.4730   58.3250 N.am   50  THR50      -0.1937
     77  CA       -24.3570  -22.3930   58.9010 C.3    50  THR50       0.2028
     78  C        -25.3270  -23.0210   59.8790 C.2    50  THR50       0.2642
     79  O        -25.7170  -24.1690   59.7090 O.2    50  THR50      -0.2714
     80  CB       -25.1900  -21.6610   57.8480 C.3    50  THR50       0.1808
     81  OG1      -26.2550  -22.5160   57.4100 O.3    50  THR50      -0.2208
     82  CG2      -24.3270  -21.2770   56.6590 C.3    50  THR50       0.0379
     83  N        -25.6920  -22.2830   60.9210 N.am   51  ILE51      -0.1963
     84  CA       -26.6550  -22.7830   61.8870 C.3    51  ILE51       0.1712
     85  C        -27.9110  -21.9580   61.6570 C.2    51  ILE51       0.2458
     86  O        -27.8340  -20.7870   61.2780 O.2    51  ILE51      -0.2730
     87  CB       -26.1600  -22.6180   63.3440 C.3    51  ILE51       0.0289
     88  CG1      -25.6860  -21.1860   63.5890 C.3    51  ILE51       0.0022
     89  CG2      -25.0410  -23.5940   63.6160 C.3    51  ILE51       0.0023
     90  CD1      -25.0800  -20.9650   64.9770 C.3    51  ILE51       0.0001
     91  N        -29.0870  -22.5450   61.8870 N.am   52  PRO52      -0.2727
     92  CA       -29.3180  -23.9090   62.3540 C.3    52  PRO52       0.1402
     93  C        -29.0350  -25.0150   61.3470 C.2    52  PRO52       0.2269
     94  O        -29.1840  -24.8310   60.1460 O.2    52  PRO52      -0.2865
     95  CB       -30.7820  -23.8740   62.7590 C.3    52  PRO52       0.0296
     96  CG       -31.3620  -22.9590   61.7340 C.3    52  PRO52       0.0237
     97  CD       -30.3650  -21.8410   61.6740 C.3    52  PRO52       0.0939
     98  N        -31.0520  -24.5150   56.9250 N.3    63  GLU63      -0.1231
     99  CA       -31.8910  -23.3900   56.5270 C.3    63  GLU63       0.1699
    100  C        -33.0660  -23.5620   57.4790 C.2    63  GLU63       0.2593
    101  O        -33.8680  -24.4900   57.3230 O.2    63  GLU63      -0.2718
    102  CB       -32.4150  -23.4880   55.0830 C.3    63  GLU63       0.0402
    103  CG       -31.4730  -23.0390   53.9640 C.3    63  GLU63       0.1161
    104  CD       -31.0500  -21.5830   54.0700 C.2    63  GLU63       0.3649
    105  OE1      -31.8880  -20.7140   54.3970 O.co2  63  GLU63      -0.2457
    106  OE2      -29.8660  -21.3100   53.8060 O.co2  63  GLU63      -0.2457
    107  N        -33.1410  -22.6790   58.4680 N.am   64  SER64      -0.1938
    108  CA       -34.1900  -22.6860   59.4710 C.3    64  SER64       0.2055
    109  C        -35.5580  -23.0110   58.8820 C.2    64  SER64       0.2643
    110  O        -36.4000  -23.6440   59.5210 O.2    64  SER64      -0.2714
    111  CB       -34.2380  -21.3130   60.1610 C.3    64  SER64       0.2130
    112  OG       -34.5580  -20.2660   59.2450 O.3    64  SER64      -0.2179
    113  N        -35.7760  -22.5670   57.6570 N.am   65  TYR65      -0.1973
    114  CA       -37.0490  -22.7900   56.9910 C.3    65  TYR65       0.1639
    115  C        -37.2090  -24.2280   56.5220 C.2    65  TYR65       0.2290
    116  O        -38.2960  -24.7930   56.6040 O.2    65  TYR65      -0.2864
    117  CB       -37.1820  -21.8390   55.8070 C.3    65  TYR65       0.0560
    118  CG       -36.8970  -20.4110   56.1790 C.ar   65  TYR65      -0.0198
    119  CD1      -35.6020  -19.9140   56.1600 C.ar   65  TYR65      -0.0009
    120  CD2      -37.9210  -19.5600   56.5830 C.ar   65  TYR65      -0.0009
    121  CE1      -35.3310  -18.5950   56.5370 C.ar   65  TYR65       0.0417
    122  CE2      -37.6590  -18.2360   56.9640 C.ar   65  TYR65       0.0417
    123  CZ       -36.3620  -17.7680   56.9400 C.ar   65  TYR65       0.1957
    124  OH       -36.0880  -16.4910   57.3660 O.3    65  TYR65      -0.2866
    125  N        -37.2700  -14.4130   54.8480 N.3   100  ILE100     -0.1245
    126  CA       -35.8760  -14.5750   54.5070 C.3   100  ILE100      0.1561
    127  C        -35.3610  -13.5400   53.5210 C.2   100  ILE100      0.2260
    128  O        -34.2420  -13.0410   53.6840 O.2   100  ILE100     -0.2867
    129  CB       -35.5910  -15.9930   53.9480 C.3   100  ILE100      0.0252
    130  CG1      -34.0820  -16.2020   53.8550 C.3   100  ILE100      0.0019
    131  CG2      -36.2300  -16.1760   52.5760 C.3   100  ILE100      0.0019
    132  CD1      -33.6650  -17.5620   53.3320 C.3   100  ILE100      0.0001
    133  N        -36.2760   -9.9800   57.2410 N.3   104  TYR104     -0.1241
    134  CA       -35.0650  -10.3130   57.9700 C.3   104  TYR104      0.1605
    135  C        -33.8010   -9.8760   57.2340 C.2   104  TYR104      0.2264
    136  O        -32.7810   -9.5520   57.8600 O.2   104  TYR104     -0.2867
    137  CB       -35.0060  -11.8160   58.2710 C.3   104  TYR104      0.0534
    138  CG       -33.9370  -12.1490   59.2880 C.ar  104  TYR104     -0.0201
    139  CD1      -33.9780  -11.5960   60.5730 C.ar  104  TYR104     -0.0009
    140  CD2      -32.8420  -12.9420   58.9450 C.ar  104  TYR104     -0.0009
    141  CE1      -32.9490  -11.8120   61.4910 C.ar  104  TYR104      0.0417
    142  CE2      -31.8010  -13.1710   59.8600 C.ar  104  TYR104      0.0417
    143  CZ       -31.8650  -12.6000   61.1270 C.ar  104  TYR104      0.1957
    144  OH       -30.8480  -12.8090   62.0200 O.3   104  TYR104     -0.2866
    145  N        -31.0790   -7.7080   59.3800 N.3   108  ILE108     -0.1245
    146  CA       -29.7290   -8.2100   59.5530 C.3   108  ILE108      0.1561
    147  C        -28.7090   -7.3790   58.7720 C.2   108  ILE108      0.2260
    148  O        -27.5490   -7.2900   59.1690 O.2   108  ILE108     -0.2867
    149  CB       -29.6710   -9.7060   59.1270 C.3   108  ILE108      0.0252
    150  CG1      -29.2600  -10.5700   60.3190 C.3   108  ILE108      0.0019
    151  CG2      -28.7420   -9.8940   57.9350 C.3   108  ILE108      0.0019
    152  CD1      -27.8780  -10.3020   60.8170 C.3   108  ILE108      0.0001
    153  N        -25.5890   -5.8800   60.6920 N.3   112  HIS112     -0.1241
    154  CA       -24.2240   -6.1520   60.2340 C.3   112  HIS112      0.1621
    155  C        -23.3910   -4.8830   60.1100 C.2   112  HIS112      0.2264
    156  O        -22.1820   -4.8940   60.3450 O.2   112  HIS112     -0.2867
    157  CB       -24.2330   -6.8640   58.8800 C.3   112  HIS112      0.0745
    158  CG       -24.5880   -8.3140   58.9560 C.ar  112  HIS112      0.0817
    159  ND1      -24.3690   -9.0750   60.0840 N.ar  112  HIS112     -0.2268
    160  CD2      -25.0860   -9.1590   58.0220 C.ar  112  HIS112      0.1154
    161  CE1      -24.7140  -10.3280   59.8400 C.ar  112  HIS112      0.1986
    162  NE2      -25.1510  -10.4050   58.5960 N.ar  112  HIS112     -0.2212
@<TRIPOS>BOND
     1    64    63    2
     2   131   129    1
     3    65    63   am
     4    63    62    1
     5   132   130    1
     6   127   128    2
     7   127   126    1
     8    62    61    1
     9    61    58    1
    10   106   104   ar
    11    57    58    1
    12   130   129    1
    13    58    59    1
    14   129   126    1
    15   103   104    1
    16   103   102    1
    17   104   105   ar
    18   126   125    1
    19   102    99    1
    20    59    60    2
    21    59    66   am
    22    75    73   ar
    23    75    74   ar
    24   117   118    1
    25   117   114    1
    26    73    71   ar
    27   119   118   ar
    28   119   121   ar
    29   118   120   ar
    30    66    67    1
    31    74    72   ar
    32   115   116    2
    33   115   114    1
    34    99    98    1
    35    99   100    1
    36   121   123   ar
    37   120   122   ar
    38    82    80    1
    39   123   122   ar
    40   123   124    1
    41   114   113    1
    42    71    72   ar
    43    71    70    1
    44   135   136    2
    45   135   134    1
    46   133   134    1
    47   101   100    2
    48    81    80    1
    49   100   107   am
    50    67    70    1
    51    67    68    1
    52   113   109   am
    53    80    77    1
    54   151   149    1
    55   134   137    1
    56   160   162   ar
    57   160   158   ar
    58    68    76   am
    59    68    69    2
    60   137   138    1
    61    76    77    1
    62   107   108    1
    63    53    52    1
    64    53    54    2
    65    56    54    1
    66   162   161   ar
    67   147   148    2
    68   147   146    1
    69   157   158    1
    70   157   154    1
    71   109   108    1
    72   109   110    2
    73    77    78    1
    74    52    51    1
    75    54    55    1
    76   140   138   ar
    77   140   142   ar
    78   158   159   ar
    79   149   146    1
    80   149   150    1
    81   112   111    1
    82   138   139   ar
    83   145   146    1
    84   108   111    1
    85    79    78    2
    86   161   159   ar
    87   142   143   ar
    88    78    83   am
    89    49    48    2
    90   155   154    1
    91   155   156    2
    92    94    93    2
    93   154   153    1
    94   150   152    1
    95    51    50    1
    96   139   141   ar
    97    48    47    1
    98    83    84    1
    99   143   141   ar
   100   143   144    1
   101    50    47    1
   102    86    85    2
   103    93    92    1
   104    27    26    1
   105    27    28    1
   106    26    23    1
   107    47    46    1
   108    85    84    1
   109    85    91   am
   110    97    96    1
   111    97    91    1
   112    96    95    1
   113    84    87    1
   114    91    92    1
   115    32    31    2
   116    92    95    1
   117    23    24    1
   118    23    22    1
   119    28    22    1
   120    33    34    1
   121    33    35    1
   122    33    30    1
   123    25    24    2
   124    87    88    1
   125    87    89    1
   126    22    17   am
   127    31    30    1
   128    31    36   am
   129    88    90    1
   130    39    38    2
   131    30    29    1
   132    45    43   ar
   133    45    44   ar
   134    43    41   ar
   135    37    36    1
   136    37    38    1
   137    37    40    1
   138    14    13    1
   139    44    42   ar
   140    17    18    2
   141    17    16    1
   142    41    42   ar
   143    41    40    1
   144    19    20    1
   145    19    16    1
   146    21    20    1
   147    21    15    1
   148    16    15    1
   149    15    11   am
   150    13    10    1
   151    11    10    1
   152    11    12    2
   153    10     9    1
   154     9     3   am
   155     4     3    2
   156     3     2    1
   157     7     5    1
   158     2     5    1
   159     2     1    1
   160     5     6    1
   161     6     8    1
