@<TRIPOS>MOLECULE
tmp/1v2bB00.pdb
 86 83 0 0 0
SMALL
GASTEIGER

@<TRIPOS>ATOM
      1  N         10.2780   22.2250   38.2100 N.3    16  PRO16      -0.2116
      2  CA        10.5910   23.4920   37.5330 C.3    16  PRO16       0.1372
      3  C          9.6150   23.7230   36.3820 C.2    16  PRO16       0.2244
      4  O          9.4110   22.8230   35.5610 O.2    16  PRO16      -0.2868
      5  CB        12.0180   23.2680   37.0250 C.3    16  PRO16       0.0268
      6  CG        12.6050   22.3350   38.0300 C.3    16  PRO16       0.0207
      7  CD        11.4780   21.3820   38.3660 C.3    16  PRO16       0.0892
      8  N          9.3730   25.1690   33.5670 N.3    18  LYS18      -0.1231
      9  CA         9.7310   25.1360   32.1470 C.3    18  LYS18       0.1693
     10  C         10.1420   23.7470   31.6590 C.2    18  LYS18       0.2592
     11  O         10.2660   23.5260   30.4530 O.2    18  LYS18      -0.2718
     12  CB        10.8240   26.1680   31.8310 C.3    18  LYS18       0.0285
     13  CG        10.4510   27.5950   32.2180 C.3    18  LYS18       0.0035
     14  CD        11.5980   28.5670   31.9670 C.3    18  LYS18       0.0206
     15  CE        11.3150   29.9380   32.5690 C.3    18  LYS18       0.1093
     16  NZ        10.0690   30.5540   32.0190 N.3    18  LYS18      -0.1314
     17  N         10.3320   22.8120   32.5880 N.am   19  TRP19      -0.1976
     18  CA        10.7860   21.4710   32.2220 C.3    19  TRP19       0.1640
     19  C          9.6770   20.6700   31.5430 C.2    19  TRP19       0.2290
     20  O          8.4890   20.8950   31.7990 O.2    19  TRP19      -0.2864
     21  CB        11.3250   20.7170   33.4380 C.3    19  TRP19       0.0576
     22  CG        12.6300   21.2490   33.9570 C.ar   19  TRP19       0.0006
     23  CD1       13.2650   22.4060   33.5850 C.ar   19  TRP19       0.0946
     24  CD2       13.4590   20.6460   34.9570 C.ar   19  TRP19       0.0152
     25  NE1       14.4360   22.5510   34.2900 N.ar   19  TRP19      -0.2442
     26  CE2       14.5790   21.4870   35.1430 C.ar   19  TRP19       0.0810
     27  CE3       13.3630   19.4760   35.7280 C.ar   19  TRP19       0.0012
     28  CZ2       15.6000   21.1940   36.0630 C.ar   19  TRP19       0.0191
     29  CZ3       14.3750   19.1850   36.6380 C.ar   19  TRP19       0.0001
     30  CH2       15.4810   20.0410   36.7940 C.ar   19  TRP19       0.0015
     31  N         15.0380   19.8080   31.5660 N.3    36  ASP36      -0.1239
     32  CA        15.2670   21.0600   30.8660 C.3    36  ASP36       0.1674
     33  C         15.3490   20.7590   29.3740 C.2    36  ASP36       0.2266
     34  O         16.1050   19.8830   28.9530 O.2    36  ASP36      -0.2867
     35  CB        16.5720   21.6880   31.3710 C.3    36  ASP36       0.1410
     36  CG        16.7980   23.0940   30.8460 C.2    36  ASP36       0.3668
     37  OD1       16.8380   23.2710   29.6170 O.co2  36  ASP36      -0.2456
     38  OD2       16.9720   24.0780   31.5930 O.co2  36  ASP36      -0.2456
     39  N         19.9040   18.2770   33.2870 N.3    42  SER42      -0.1217
     40  CA        19.0210   18.8380   34.3040 C.3    42  SER42       0.1889
     41  C         17.6930   18.1100   34.2410 C.2    42  SER42       0.2288
     42  O         16.9190   18.2990   33.3040 O.2    42  SER42      -0.2866
     43  CB        18.8090   20.3340   34.0870 C.3    42  SER42       0.2089
     44  OG        19.9460   21.0600   34.5240 O.3    42  SER42      -0.2183
     45  N         24.6620   24.2750   35.1060 N.3   132  ARG132     -0.1245
     46  CA        23.4180   24.7110   35.7340 C.3   132  ARG132      0.1563
     47  C         23.4820   24.6060   37.2570 C.2   132  ARG132      0.2260
     48  O         22.4560   24.5740   37.9420 O.2   132  ARG132     -0.2867
     49  CB        22.2170   23.9660   35.1380 C.3   132  ARG132      0.0307
     50  CG        21.8010   24.5800   33.8050 C.3   132  ARG132      0.0489
     51  CD        20.8800   23.7350   32.9310 C.3   132  ARG132      0.2205
     52  NE        20.4490   24.5320   31.7820 N.pl3 132  ARG132     -0.0865
     53  CZ        21.1500   24.6730   30.6580 C.cat 132  ARG132      0.5346
     54  NH1       22.3130   24.0480   30.4990 N.pl3 132  ARG132      0.1354
     55  NH2       20.6830   25.4410   29.6870 N.pl3 132  ARG132      0.1354
     56  N         24.7700   26.9190   39.7470 N.3   134  PHE134     -0.1241
     57  CA        25.2090   28.2630   40.1000 C.3   134  PHE134      0.1605
     58  C         24.1200   28.9730   40.8950 C.2   134  PHE134      0.2264
     59  O         22.9470   28.5820   40.8440 O.2   134  PHE134     -0.2867
     60  CB        25.5830   29.0690   38.8410 C.3   134  PHE134      0.0534
     61  CG        24.4520   29.2430   37.8540 C.ar  134  PHE134     -0.0203
     62  CD1       23.5850   30.3310   37.9500 C.ar  134  PHE134     -0.0042
     63  CD2       24.2680   28.3320   36.8170 C.ar  134  PHE134     -0.0042
     64  CE1       22.5430   30.4960   37.0380 C.ar  134  PHE134     -0.0003
     65  CE2       23.2320   28.4890   35.8980 C.ar  134  PHE134     -0.0003
     66  CZ        22.3680   29.5730   36.0080 C.ar  134  PHE134     -0.0000
     67  N         21.2000   30.8910   42.1080 N.3   136  GLY136     -0.1210
     68  CA        19.9560   31.2330   41.4460 C.3   136  GLY136      0.1956
     69  C         19.3320   30.0680   40.7030 C.2   136  GLY136      0.2611
     70  O         18.1380   30.0980   40.4030 O.2   136  GLY136     -0.2717
     71  N         20.1320   29.0440   40.4020 N.am  137  ALA137     -0.1979
     72  CA        19.6440   27.8750   39.6720 C.3   137  ALA137      0.1597
     73  C         19.6520   26.5790   40.4870 C.2   137  ALA137      0.2287
     74  O         19.0280   25.5930   40.0910 O.2   137  ALA137     -0.2864
     75  CB        20.4200   27.6920   38.3740 C.3   137  ALA137      0.0319
     76  N         16.4520   24.4560   41.3360 N.3   140  PHE140     -0.1241
     77  CA        15.8110   23.5550   40.3750 C.3   140  PHE140      0.1605
     78  C         16.1930   22.0840   40.5910 C.2   140  PHE140      0.2264
     79  O         15.5030   21.1770   40.1170 O.2   140  PHE140     -0.2867
     80  CB        16.0670   24.0290   38.9430 C.3   140  PHE140      0.0534
     81  CG        15.5270   25.4030   38.6750 C.ar  140  PHE140     -0.0203
     82  CD1       14.1540   25.6510   38.7520 C.ar  140  PHE140     -0.0042
     83  CD2       16.3830   26.4610   38.3840 C.ar  140  PHE140     -0.0042
     84  CE1       13.6420   26.9260   38.5170 C.ar  140  PHE140     -0.0003
     85  CE2       15.8820   27.7390   38.1550 C.ar  140  PHE140     -0.0003
     86  CZ        14.5090   27.9720   38.2200 C.ar  140  PHE140     -0.0000
@<TRIPOS>BOND
     1    34    33    2
     2    33    32    1
     3    37    36   ar
     4    55    53    1
     5    11    10    2
     6    54    53    1
     7    53    52    2
     8    36    35    1
     9    36    38   ar
    10    32    35    1
    11    32    31    1
    12    19    20    2
    13    19    18    1
    14    10     9    1
    15    10    17   am
    16    52    51    1
    17    12     9    1
    18    12    13    1
    19    14    13    1
    20    14    15    1
    21    16    15    1
    22     9     8    1
    23    18    17    1
    24    18    21    1
    25    51    50    1
    26    39    40    1
    27    42    41    2
    28    21    22    1
    29    23    22   ar
    30    23    25   ar
    31    50    49    1
    32    22    24   ar
    33    43    40    1
    34    43    44    1
    35    41    40    1
    36    25    26   ar
    37    24    26   ar
    38    24    27   ar
    39    45    46    1
    40    49    46    1
    41    26    28   ar
    42     4     3    2
    43    27    29   ar
    44    46    47    1
    45    65    66   ar
    46    65    63   ar
    47    66    64   ar
    48    28    30   ar
    49     3     2    1
    50    29    30   ar
    51    63    61   ar
    52     5     2    1
    53     5     6    1
    54    64    62   ar
    55    47    48    2
    56     2     1    1
    57    61    62   ar
    58    61    60    1
    59     6     7    1
    60    85    86   ar
    61    85    83   ar
    62     1     7    1
    63    86    84   ar
    64    75    72    1
    65    83    81   ar
    66    84    82   ar
    67    81    82   ar
    68    81    80    1
    69    60    57    1
    70    80    77    1
    71    72    71    1
    72    72    73    1
    73    56    57    1
    74    74    73    2
    75    57    58    1
    76    79    78    2
    77    77    78    1
    78    77    76    1
    79    71    69   am
    80    70    69    2
    81    69    68    1
    82    59    58    2
    83    68    67    1
