@<TRIPOS>MOLECULE
tmp/1v2eA01.pdb
 125 119 0 0 0
SMALL
GASTEIGER

@<TRIPOS>ATOM
      1  N         62.0460   53.0760   22.7980 N.3    13  SER13      -0.1217
      2  CA        62.7200   52.8660   21.5320 C.3    13  SER13       0.1889
      3  C         64.1270   52.3700   21.8120 C.2    13  SER13       0.2288
      4  O         64.7230   52.7360   22.8310 O.2    13  SER13      -0.2866
      5  CB        62.7860   54.1730   20.7500 C.3    13  SER13       0.2089
      6  OG        63.6210   54.0180   19.6180 O.3    13  SER13      -0.2183
      7  N         66.8060   53.1360   20.2240 N.3    15  PHE15      -0.1228
      8  CA        67.7260   54.2640   20.0830 C.3    15  PHE15       0.1721
      9  C         68.0090   55.0160   21.3770 C.2    15  PHE15       0.2437
     10  O         69.1580   55.1320   21.7730 O.2    15  PHE15      -0.2733
     11  CB        67.2210   55.2190   18.9940 C.3    15  PHE15       0.0547
     12  CG        67.0490   54.5600   17.6530 C.ar   15  PHE15      -0.0202
     13  CD1       68.0700   53.7810   17.1110 C.ar   15  PHE15      -0.0042
     14  CD2       65.8740   54.7210   16.9250 C.ar   15  PHE15      -0.0042
     15  CE1       67.9270   53.1710   15.8700 C.ar   15  PHE15      -0.0003
     16  CE2       65.7270   54.1130   15.6760 C.ar   15  PHE15      -0.0003
     17  CZ        66.7590   53.3350   15.1510 C.ar   15  PHE15      -0.0000
     18  N         66.9800   55.5620   22.0420 N.am   16  PRO16      -0.2729
     19  CA        67.2830   56.2690   23.2900 C.3    16  PRO16       0.1401
     20  C         67.7350   55.3360   24.4210 C.2    16  PRO16       0.2269
     21  O         68.4350   55.7570   25.3450 O.2    16  PRO16      -0.2865
     22  CB        65.9730   56.9790   23.6160 C.3    16  PRO16       0.0296
     23  CG        64.9410   56.1550   22.9220 C.3    16  PRO16       0.0237
     24  CD        65.6030   55.8470   21.6140 C.3    16  PRO16       0.0939
     25  N         72.3810   55.6870   18.3630 N.3    32  GLN32      -0.1231
     26  CA        71.3700   56.6630   17.9770 C.3    32  GLN32       0.1698
     27  C         71.9770   57.7950   17.1510 C.2    32  GLN32       0.2592
     28  O         72.9660   58.4000   17.5360 O.2    32  GLN32      -0.2718
     29  CB        70.7030   57.2290   19.2240 C.3    32  GLN32       0.0381
     30  CG        69.6460   58.2680   18.9640 C.3    32  GLN32       0.0905
     31  CD        69.0740   58.7780   20.2530 C.2    32  GLN32       0.2608
     32  OE1       69.7240   58.6920   21.2930 O.2    32  GLN32      -0.2717
     33  NE2       67.8590   59.3280   20.2050 N.am   32  GLN32      -0.0878
     34  N         71.3640   58.1000   16.0200 N.am   33  GLY33      -0.1957
     35  CA        71.9020   59.1440   15.1740 C.3    33  GLY33       0.1869
     36  C         71.5890   60.6030   15.4830 C.2    33  GLY33       0.2309
     37  O         70.4430   61.0430   15.4630 O.2    33  GLY33      -0.2863
     38  N         58.8140   62.8060   12.8390 N.3    88  THR88      -0.1218
     39  CA        58.1830   61.7870   13.6760 C.3    88  THR88       0.1862
     40  C         56.6730   61.9810   13.7250 C.2    88  THR88       0.2287
     41  O         55.9070   61.0180   13.6030 O.2    88  THR88      -0.2866
     42  CB        58.7450   61.8200   15.1310 C.3    88  THR88       0.1770
     43  OG1       60.1090   61.3880   15.1310 O.3    88  THR88      -0.2211
     44  CG2       57.9600   60.9020   16.0390 C.3    88  THR88       0.0375
     45  N         62.3590   51.4510    9.5700 N.3   112  PHE112     -0.1227
     46  CA        62.6870   52.4600   10.5520 C.3   112  PHE112      0.1736
     47  C         61.7490   52.3530   11.7540 C.2   112  PHE112      0.2595
     48  O         60.5210   52.3710   11.6320 O.2   112  PHE112     -0.2718
     49  CB        62.6140   53.8720    9.9540 C.3   112  PHE112      0.0547
     50  CG        62.9070   54.9570   10.9530 C.ar  112  PHE112     -0.0202
     51  CD1       61.9480   55.9030   11.2750 C.ar  112  PHE112     -0.0042
     52  CD2       64.1280   54.9840   11.6340 C.ar  112  PHE112     -0.0042
     53  CE1       62.1920   56.8610   12.2650 C.ar  112  PHE112     -0.0003
     54  CE2       64.3780   55.9430   12.6290 C.ar  112  PHE112     -0.0003
     55  CZ        63.4050   56.8790   12.9410 C.ar  112  PHE112     -0.0000
     56  N         62.3830   52.2260   12.9120 N.am  113  ASP113     -0.1974
     57  CA        61.7830   52.1060   14.2380 C.3   113  ASP113      0.1709
     58  C         60.3680   52.6600   14.5020 C.2   113  ASP113      0.2293
     59  O         59.6580   52.1470   15.3670 O.2   113  ASP113     -0.2864
     60  CB        62.7970   52.7130   15.2180 C.3   113  ASP113      0.1436
     61  CG        62.2140   53.0280   16.5580 C.2   113  ASP113      0.3671
     62  OD1       62.2210   52.1440   17.4370 O.co2 113  ASP113     -0.2456
     63  OD2       61.7530   54.1730   16.7260 O.co2 113  ASP113     -0.2456
     64  N         67.3010   54.3340    5.9030 N.3   163  ASN163     -0.1240
     65  CA        67.8540   54.1090    7.2250 C.3   163  ASN163      0.1653
     66  C         67.2510   52.7490    7.5710 C.2   163  ASN163      0.2266
     67  O         66.0360   52.5840    7.5290 O.2   163  ASN163     -0.2867
     68  CB        67.3420   55.2040    8.1580 C.3   163  ASN163      0.1155
     69  CG        67.7590   55.0060    9.5980 C.2   163  ASN163      0.2627
     70  OD1       68.5590   54.1310    9.9190 O.2   163  ASN163     -0.2716
     71  ND2       67.2150   55.8370   10.4760 N.am  163  ASN163     -0.0877
     72  N         66.6150   62.4500    4.7920 N.3   194  TYR194     -0.1241
     73  CA        68.0060   62.5040    4.3320 C.3   194  TYR194      0.1605
     74  C         68.1100   62.9210    2.8690 C.2   194  TYR194      0.2264
     75  O         69.0810   62.5920    2.1940 O.2   194  TYR194     -0.2867
     76  CB        68.6840   61.1400    4.4980 C.3   194  TYR194      0.0534
     77  CG        68.9030   60.7510    5.9330 C.ar  194  TYR194     -0.0201
     78  CD1       69.9510   61.3000    6.6630 C.ar  194  TYR194     -0.0009
     79  CD2       68.0160   59.9040    6.5920 C.ar  194  TYR194     -0.0009
     80  CE1       70.1070   61.0230    8.0130 C.ar  194  TYR194      0.0417
     81  CE2       68.1620   59.6240    7.9420 C.ar  194  TYR194      0.0417
     82  CZ        69.2100   60.1900    8.6440 C.ar  194  TYR194      0.1957
     83  OH        69.3630   59.9480    9.9860 O.3   194  TYR194     -0.2866
     84  N         67.4100   66.9160   10.5300 N.3   222  LYS222     -0.1245
     85  CA        68.2670   66.0040    9.7670 C.3   222  LYS222      0.1561
     86  C         68.8980   66.7260    8.5860 C.2   222  LYS222      0.2260
     87  O         69.7620   66.1780    7.9030 O.2   222  LYS222     -0.2867
     88  CB        67.4760   64.7950    9.2500 C.3   222  LYS222      0.0271
     89  CG        67.0150   63.8210   10.3240 C.3   222  LYS222      0.0035
     90  CD        68.1880   63.0530   10.9720 C.3   222  LYS222      0.0206
     91  CE        67.7090   62.1450   12.1240 C.3   222  LYS222      0.1093
     92  NZ        66.6240   61.3580   11.5160 N.3   222  LYS222     -0.1314
     93  N         62.7460   69.7370   16.5080 N.3   230  ARG230     -0.1245
     94  CA        61.3880   69.2260   16.2530 C.3   230  ARG230      0.1563
     95  C         60.5750   70.0440   15.2380 C.2   230  ARG230      0.2260
     96  O         59.4700   70.5050   15.5320 O.2   230  ARG230     -0.2867
     97  CB        60.5900   69.1420   17.5670 C.3   230  ARG230      0.0307
     98  CG        61.3790   68.6370   18.7670 C.3   230  ARG230      0.0489
     99  CD        62.1790   67.4080   18.4250 C.3   230  ARG230      0.2205
    100  NE        61.3210   66.3440   17.9290 N.pl3 230  ARG230     -0.0865
    101  CZ        61.6860   65.4720   17.0020 C.cat 230  ARG230      0.5346
    102  NH1       62.8950   65.5500   16.4690 N.pl3 230  ARG230      0.1354
    103  NH2       60.8460   64.5200   16.6100 N.pl3 230  ARG230      0.1354
    104  N         74.4950   56.6140    8.2640 N.3   309  PHE309     -0.1241
    105  CA        74.4720   55.2940    8.8970 C.3   309  PHE309      0.1605
    106  C         75.1270   54.3340    7.9280 C.2   309  PHE309      0.2264
    107  O         75.0800   54.5230    6.7130 O.2   309  PHE309     -0.2867
    108  CB        73.0450   54.8050    9.1250 C.3   309  PHE309      0.0534
    109  CG        72.2500   55.6460   10.0740 C.ar  309  PHE309     -0.0203
    110  CD1       72.5820   55.7000   11.4210 C.ar  309  PHE309     -0.0042
    111  CD2       71.1600   56.3730    9.6200 C.ar  309  PHE309     -0.0042
    112  CE1       71.8350   56.4660   12.2960 C.ar  309  PHE309     -0.0003
    113  CE2       70.4060   57.1380   10.4850 C.ar  309  PHE309     -0.0003
    114  CZ        70.7420   57.1870   11.8230 C.ar  309  PHE309     -0.0000
    115  N         74.4070   48.3050   13.1080 N.3   347  ARG347     -0.1245
    116  CA        74.3600   49.5870   12.4210 C.3   347  ARG347      0.1563
    117  C         75.2740   50.5670   13.1420 C.2   347  ARG347      0.2260
    118  O         75.2100   50.6980   14.3670 O.2   347  ARG347     -0.2867
    119  CB        72.9450   50.1490   12.3950 C.3   347  ARG347      0.0307
    120  CG        72.7940   51.3180   11.4400 C.3   347  ARG347      0.0489
    121  CD        71.4760   52.0370   11.6470 C.3   347  ARG347      0.2205
    122  NE        71.4580   52.7390   12.9250 N.pl3 347  ARG347     -0.0865
    123  CZ        70.5300   53.6150   13.2750 C.cat 347  ARG347      0.5346
    124  NH1       69.5370   53.8930   12.4410 N.pl3 347  ARG347      0.1354
    125  NH2       70.6080   54.2320   14.4400 N.pl3 347  ARG347      0.1354
@<TRIPOS>BOND
     1    75    74    2
     2    74    73    1
     3    73    76    1
     4    73    72    1
     5    76    77    1
     6    64    65    1
     7    77    79   ar
     8    77    78   ar
     9    79    81   ar
    10    78    80   ar
    11   107   106    2
    12    65    66    1
    13    65    68    1
    14    67    66    2
    15    87    86    2
    16   106   105    1
    17    81    82   ar
    18    80    82   ar
    19    68    69    1
    20   104   105    1
    21    86    85    1
    22    82    83    1
    23   105   108    1
    24   108   109    1
    25    88    85    1
    26    88    89    1
    27    45    46    1
    28    69    70    2
    29    69    71   am
    30   111   109   ar
    31   111   113   ar
    32    85    84    1
    33    49    46    1
    34    49    50    1
    35   109   110   ar
    36    89    90    1
    37   113   114   ar
    38    46    47    1
    39    50    51   ar
    40    50    52   ar
    41    90    91    1
    42    51    53   ar
    43   110   112   ar
    44   120   121    1
    45   120   119    1
    46    92    91    1
    47    48    47    2
    48    52    54   ar
    49   121   122    1
    50    47    56   am
    51   114   112   ar
    52    53    55   ar
    53   119   116    1
    54   116   115    1
    55   116   117    1
    56   124   123    1
    57    54    55   ar
    58    38    39    1
    59    56    57    1
    60   122   123    2
    61   117   118    2
    62   123   125    1
    63    41    40    2
    64    39    40    1
    65    39    42    1
    66    57    58    1
    67    57    60    1
    68    58    59    2
    69    43    42    1
    70    42    44    1
    71    17    16   ar
    72    17    15   ar
    73    35    36    1
    74    35    34    1
    75    60    61    1
    76    95    96    2
    77    95    94    1
    78    37    36    2
    79    16    14   ar
    80    15    13   ar
    81    34    27   am
    82    94    93    1
    83    94    97    1
    84   102   101    1
    85    61    63   ar
    86    61    62   ar
    87   103   101    1
    88    14    12   ar
    89   101   100    2
    90    13    12   ar
    91    27    28    2
    92    27    26    1
    93    97    98    1
    94    12    11    1
    95   100    99    1
    96    26    25    1
    97    26    29    1
    98    99    98    1
    99    30    29    1
   100    30    31    1
   101    11     8    1
   102     6     5    1
   103     8     7    1
   104     8     9    1
   105    33    31   am
   106    31    32    2
   107     5     2    1
   108     9    10    2
   109     9    18   am
   110     2     3    1
   111     2     1    1
   112    24    18    1
   113    24    23    1
   114     3     4    2
   115    18    19    1
   116    23    22    1
   117    19    22    1
   118    19    20    1
   119    20    21    2
