@<TRIPOS>MOLECULE
tmp/1v2eA00.pdb
 133 124 0 0 0
SMALL
GASTEIGER

@<TRIPOS>ATOM
      1  N         58.4060   67.7250   13.8270 N.3    86  GLY86      -0.1210
      2  CA        59.3540   66.6830   13.4890 C.3    86  GLY86       0.1956
      3  C         58.8170   65.7180   12.4410 C.2    86  GLY86       0.2612
      4  O         57.6100   65.6130   12.2100 O.2    86  GLY86      -0.2717
      5  N         59.7190   65.0110   11.7840 N.am   87  ALA87      -0.1965
      6  CA        59.2940   64.0480   10.7980 C.3    87  ALA87       0.1728
      7  C         58.5460   62.9300   11.5410 C.2    87  ALA87       0.2616
      8  O         57.7400   62.2110   10.9550 O.2    87  ALA87      -0.2715
      9  CB        60.5050   63.4890   10.0570 C.3    87  ALA87       0.0334
     10  N         58.8140   62.8060   12.8390 N.am   88  THR88      -0.1951
     11  CA        58.1830   61.7870   13.6760 C.3    88  THR88       0.1897
     12  C         56.6730   61.9810   13.7250 C.2    88  THR88       0.2313
     13  O         55.9070   61.0180   13.6030 O.2    88  THR88      -0.2863
     14  CB        58.7450   61.8200   15.1310 C.3    88  THR88       0.1794
     15  OG1       60.1090   61.3880   15.1310 O.3    88  THR88      -0.2208
     16  CG2       57.9600   60.9020   16.0390 C.3    88  THR88       0.0378
     17  N         55.0040   61.3170   10.2120 N.3    91  LEU91      -0.1245
     18  CA        54.7890   59.9110    9.9390 C.3    91  LEU91       0.1561
     19  C         53.6260   59.3350   10.7460 C.2    91  LEU91       0.2260
     20  O         52.8420   58.5360   10.2300 O.2    91  LEU91      -0.2867
     21  CB        56.0660   59.1350   10.2350 C.3    91  LEU91       0.0270
     22  CG        57.2280   59.3250    9.2600 C.3    91  LEU91       0.0019
     23  CD1       58.4200   58.5540    9.7680 C.3    91  LEU91       0.0001
     24  CD2       56.8470   58.8280    7.8730 C.3    91  LEU91       0.0001
     25  N         62.3590   51.4510    9.5700 N.3   112  PHE112     -0.1241
     26  CA        62.6870   52.4600   10.5520 C.3   112  PHE112      0.1605
     27  C         61.7490   52.3530   11.7540 C.2   112  PHE112      0.2264
     28  O         60.5210   52.3710   11.6320 O.2   112  PHE112     -0.2867
     29  CB        62.6140   53.8720    9.9540 C.3   112  PHE112      0.0534
     30  CG        62.9070   54.9570   10.9530 C.ar  112  PHE112     -0.0203
     31  CD1       61.9480   55.9030   11.2750 C.ar  112  PHE112     -0.0042
     32  CD2       64.1280   54.9840   11.6340 C.ar  112  PHE112     -0.0042
     33  CE1       62.1920   56.8610   12.2650 C.ar  112  PHE112     -0.0003
     34  CE2       64.3780   55.9430   12.6290 C.ar  112  PHE112     -0.0003
     35  CZ        63.4050   56.8790   12.9410 C.ar  112  PHE112     -0.0000
     36  N         61.3920   54.7970    2.2080 N.3   159  ASN159     -0.1240
     37  CA        62.3990   55.5390    2.9510 C.3   159  ASN159      0.1653
     38  C         63.6400   55.6740    2.0840 C.2   159  ASN159      0.2266
     39  O         64.4090   54.7170    1.9370 O.2   159  ASN159     -0.2867
     40  CB        62.7520   54.8070    4.2530 C.3   159  ASN159      0.1155
     41  CG        63.7970   55.5460    5.0810 C.2   159  ASN159      0.2627
     42  OD1       64.7560   54.9500    5.5790 O.2   159  ASN159     -0.2716
     43  ND2       63.6090   56.8500    5.2370 N.am  159  ASN159     -0.0877
     44  N         67.3010   54.3340    5.9030 N.3   163  ASN163     -0.1240
     45  CA        67.8540   54.1090    7.2250 C.3   163  ASN163      0.1653
     46  C         67.2510   52.7490    7.5710 C.2   163  ASN163      0.2266
     47  O         66.0360   52.5840    7.5290 O.2   163  ASN163     -0.2867
     48  CB        67.3420   55.2040    8.1580 C.3   163  ASN163      0.1155
     49  CG        67.7590   55.0060    9.5980 C.2   163  ASN163      0.2627
     50  OD1       68.5590   54.1310    9.9190 O.2   163  ASN163     -0.2716
     51  ND2       67.2150   55.8370   10.4760 N.am  163  ASN163     -0.0877
     52  N         59.6960   58.7670    3.1780 N.3   191  ASP191     -0.1239
     53  CA        60.4810   59.3400    4.2670 C.3   191  ASP191      0.1674
     54  C         61.8030   59.7240    3.6180 C.2   191  ASP191      0.2266
     55  O         62.6190   58.8600    3.3210 O.2   191  ASP191     -0.2867
     56  CB        60.7240   58.2870    5.3580 C.3   191  ASP191      0.1410
     57  CG        61.2390   58.8870    6.6550 C.2   191  ASP191      0.3668
     58  OD1       62.1210   59.7630    6.6050 O.co2 191  ASP191     -0.2456
     59  OD2       60.7700   58.4720    7.7300 O.co2 191  ASP191     -0.2456
     60  N         63.9270   62.3200    4.9080 N.3   193  VAL193     -0.1231
     61  CA        64.5700   63.2490    5.8260 C.3   193  VAL193      0.1692
     62  C         66.0280   63.4550    5.4430 C.2   193  VAL193      0.2592
     63  O         66.5970   64.5060    5.7230 O.2   193  VAL193     -0.2718
     64  CB        64.4860   62.7530    7.2840 C.3   193  VAL193      0.0266
     65  CG1       63.0380   62.7330    7.7370 C.3   193  VAL193      0.0020
     66  CG2       65.1050   61.3750    7.4070 C.3   193  VAL193      0.0020
     67  N         66.6150   62.4500    4.7920 N.am  194  TYR194     -0.1976
     68  CA        68.0060   62.5040    4.3320 C.3   194  TYR194      0.1639
     69  C         68.1100   62.9210    2.8690 C.2   194  TYR194      0.2290
     70  O         69.0810   62.5920    2.1940 O.2   194  TYR194     -0.2864
     71  CB        68.6840   61.1400    4.4980 C.3   194  TYR194      0.0560
     72  CG        68.9030   60.7510    5.9330 C.ar  194  TYR194     -0.0198
     73  CD1       69.9510   61.3000    6.6630 C.ar  194  TYR194     -0.0009
     74  CD2       68.0160   59.9040    6.5920 C.ar  194  TYR194     -0.0009
     75  CE1       70.1070   61.0230    8.0130 C.ar  194  TYR194      0.0417
     76  CE2       68.1620   59.6240    7.9420 C.ar  194  TYR194      0.0417
     77  CZ        69.2100   60.1900    8.6440 C.ar  194  TYR194      0.1957
     78  OH        69.3630   59.9480    9.9860 O.3   194  TYR194     -0.2866
     79  N         62.8140   66.5450    7.3470 N.3   219  SER219     -0.1217
     80  CA        63.1350   67.0080    8.6980 C.3   219  SER219      0.1889
     81  C         64.2020   68.1140    8.7270 C.2   219  SER219      0.2288
     82  O         65.2530   68.0080    8.0760 O.2   219  SER219     -0.2866
     83  CB        63.6150   65.8160    9.5320 C.3   219  SER219      0.2089
     84  OG        63.9710   66.2190   10.8320 O.3   219  SER219     -0.2183
     85  N         65.8770   69.0640   11.4660 N.3   221  GLY221     -0.1210
     86  CA        66.9430   68.5350   12.2970 C.3   221  GLY221      0.1956
     87  C         67.8900   67.6080   11.5620 C.2   221  GLY221      0.2611
     88  O         69.0590   67.5210   11.9340 O.2   221  GLY221     -0.2717
     89  N         67.4100   66.9160   10.5300 N.am  222  LYS222     -0.1979
     90  CA        68.2670   66.0040    9.7670 C.3   222  LYS222      0.1596
     91  C         68.8980   66.7260    8.5860 C.2   222  LYS222      0.2287
     92  O         69.7620   66.1780    7.9030 O.2   222  LYS222     -0.2864
     93  CB        67.4760   64.7950    9.2500 C.3   222  LYS222      0.0298
     94  CG        67.0150   63.8210   10.3240 C.3   222  LYS222      0.0038
     95  CD        68.1880   63.0530   10.9720 C.3   222  LYS222      0.0206
     96  CE        67.7090   62.1450   12.1240 C.3   222  LYS222      0.1093
     97  NZ        66.6240   61.3580   11.5160 N.3   222  LYS222     -0.1314
     98  N         68.8500   67.9950   15.4330 N.3   227  THR227     -0.1218
     99  CA        67.8090   67.0090   15.7210 C.3   227  THR227      0.1862
    100  C         66.8730   67.2920   16.8860 C.2   227  THR227      0.2287
    101  O         65.8410   66.6390   17.0090 O.2   227  THR227     -0.2866
    102  CB        68.4010   65.5910   15.9440 C.3   227  THR227      0.1770
    103  OG1       69.1270   65.5500   17.1830 O.3   227  THR227     -0.2211
    104  CG2       69.3170   65.2140   14.7910 C.3   227  THR227      0.0375
    105  N         62.7460   69.7370   16.5080 N.3   230  ARG230     -0.1231
    106  CA        61.3880   69.2260   16.2530 C.3   230  ARG230      0.1694
    107  C         60.5750   70.0440   15.2380 C.2   230  ARG230      0.2591
    108  O         59.4700   70.5050   15.5320 O.2   230  ARG230     -0.2718
    109  CB        60.5900   69.1420   17.5670 C.3   230  ARG230      0.0321
    110  CG        61.3790   68.6370   18.7670 C.3   230  ARG230      0.0489
    111  CD        62.1790   67.4080   18.4250 C.3   230  ARG230      0.2205
    112  NE        61.3210   66.3440   17.9290 N.pl3 230  ARG230     -0.0865
    113  CZ        61.6860   65.4720   17.0020 C.cat 230  ARG230      0.5346
    114  NH1       62.8950   65.5500   16.4690 N.pl3 230  ARG230      0.1354
    115  NH2       60.8460   64.5200   16.6100 N.pl3 230  ARG230      0.1354
    116  N         61.1370   70.2120   14.0500 N.am  231  VAL231     -0.1980
    117  CA        60.5020   70.9450   12.9800 C.3   231  VAL231      0.1595
    118  C         60.6150   70.0510   11.7670 C.2   231  VAL231      0.2287
    119  O         61.7030   69.7960   11.2780 O.2   231  VAL231     -0.2864
    120  CB        61.2320   72.2490   12.7320 C.3   231  VAL231      0.0276
    121  CG1       60.6020   73.0080   11.5850 C.3   231  VAL231      0.0022
    122  CG2       61.2190   73.0590   13.9950 C.3   231  VAL231      0.0022
    123  N         74.4950   56.6140    8.2640 N.3   309  PHE309     -0.1241
    124  CA        74.4720   55.2940    8.8970 C.3   309  PHE309      0.1605
    125  C         75.1270   54.3340    7.9280 C.2   309  PHE309      0.2264
    126  O         75.0800   54.5230    6.7130 O.2   309  PHE309     -0.2867
    127  CB        73.0450   54.8050    9.1250 C.3   309  PHE309      0.0534
    128  CG        72.2500   55.6460   10.0740 C.ar  309  PHE309     -0.0203
    129  CD1       72.5820   55.7000   11.4210 C.ar  309  PHE309     -0.0042
    130  CD2       71.1600   56.3730    9.6200 C.ar  309  PHE309     -0.0042
    131  CE1       71.8350   56.4660   12.2960 C.ar  309  PHE309     -0.0003
    132  CE2       70.4060   57.1380   10.4850 C.ar  309  PHE309     -0.0003
    133  CZ        70.7420   57.1870   11.8230 C.ar  309  PHE309     -0.0000
@<TRIPOS>BOND
     1    39    38    2
     2    38    37    1
     3    70    69    2
     4    36    37    1
     5    69    68    1
     6    37    40    1
     7    52    53    1
     8    55    54    2
     9    54    53    1
    10    40    41    1
    11    53    56    1
    12    68    71    1
    13    68    67    1
    14    71    72    1
    15    67    62   am
    16    60    61    1
    17    41    43   am
    18    41    42    2
    19    56    57    1
    20    62    63    2
    21    62    61    1
    22    61    64    1
    23    44    45    1
    24    72    74   ar
    25    72    73   ar
    26    74    76   ar
    27    58    57   ar
    28    57    59   ar
    29    73    75   ar
    30   126   125    2
    31    45    46    1
    32    45    48    1
    33    64    66    1
    34    64    65    1
    35    79    80    1
    36    47    46    2
    37    24    22    1
    38    92    91    2
    39   125   124    1
    40    76    77   ar
    41    75    77   ar
    42    82    81    2
    43    48    49    1
    44   123   124    1
    45    91    90    1
    46    77    78    1
    47    80    81    1
    48    80    83    1
    49   124   127    1
    50   127   128    1
    51    93    90    1
    52    93    94    1
    53    22    23    1
    54    22    21    1
    55    83    84    1
    56    25    26    1
    57    49    50    2
    58    49    51   am
    59   130   128   ar
    60   130   132   ar
    61    90    89    1
    62    18    17    1
    63    18    21    1
    64    18    19    1
    65    29    26    1
    66    29    30    1
    67     9     6    1
    68   128   129   ar
    69    20    19    2
    70    94    95    1
    71   132   133   ar
    72    89    87   am
    73    26    27    1
    74     6     7    1
    75     6     5    1
    76    30    31   ar
    77    30    32   ar
    78     8     7    2
    79    95    96    1
    80    31    33   ar
    81   119   118    2
    82   129   131   ar
    83    85    86    1
    84    97    96    1
    85     7    10   am
    86    87    88    2
    87    87    86    1
    88   121   120    1
    89    28    27    2
    90    32    34   ar
    91   118   117    1
    92     5     3   am
    93   133   131   ar
    94     4     3    2
    95    33    35   ar
    96     3     2    1
    97    34    35   ar
    98   120   117    1
    99   120   122    1
   100    10    11    1
   101   117   116    1
   102     2     1    1
   103    13    12    2
   104    11    12    1
   105    11    14    1
   106   116   107   am
   107   104   102    1
   108    14    15    1
   109    14    16    1
   110   107   108    2
   111   107   106    1
   112    98    99    1
   113    99   102    1
   114    99   100    1
   115   102   103    1
   116   106   105    1
   117   106   109    1
   118   114   113    1
   119   115   113    1
   120   100   101    2
   121   113   112    2
   122   109   110    1
   123   112   111    1
   124   111   110    1
