@<TRIPOS>MOLECULE
tmp/1v2fA01.pdb
 109 104 0 0 0
SMALL
GASTEIGER

@<TRIPOS>ATOM
      1  N         77.1740   27.4620   17.8740 N.3    13  SER13      -0.1217
      2  CA        77.3380   28.2540   19.0850 C.3    13  SER13       0.1889
      3  C         77.7220   29.6970   18.7430 C.2    13  SER13       0.2288
      4  O         78.4930   29.9340   17.8100 O.2    13  SER13      -0.2866
      5  CB        78.4120   27.6180   19.9670 C.3    13  SER13       0.2089
      6  OG        78.7150   28.4410   21.0770 O.3    13  SER13      -0.2183
      7  N         79.5970   31.6220   20.3610 N.3    15  PHE15      -0.1228
      8  CA        80.9920   31.8880   20.7060 C.3    15  PHE15       0.1721
      9  C         81.9610   31.7530   19.5310 C.2    15  PHE15       0.2437
     10  O         82.6850   32.6930   19.2290 O.2    15  PHE15      -0.2733
     11  CB        81.3920   31.0170   21.9090 C.3    15  PHE15       0.0547
     12  CG        80.6230   31.3570   23.1620 C.ar   15  PHE15      -0.0202
     13  CD1       81.0140   32.4240   23.9660 C.ar   15  PHE15      -0.0042
     14  CD2       79.4470   30.6770   23.4810 C.ar   15  PHE15      -0.0042
     15  CE1       80.2450   32.8170   25.0630 C.ar   15  PHE15      -0.0003
     16  CE2       78.6660   31.0620   24.5790 C.ar   15  PHE15      -0.0003
     17  CZ        79.0660   32.1340   25.3690 C.ar   15  PHE15      -0.0000
     18  N         81.9960   30.5940   18.8570 N.am   16  PRO16      -0.2729
     19  CA        82.9290   30.5130   17.7290 C.3    16  PRO16       0.1401
     20  C         82.4630   31.3560   16.5360 C.2    16  PRO16       0.2269
     21  O         83.2760   31.8020   15.7170 O.2    16  PRO16      -0.2865
     22  CB        82.9780   29.0160   17.4180 C.3    16  PRO16       0.0296
     23  CG        81.6550   28.5060   17.9240 C.3    16  PRO16       0.0237
     24  CD        81.4930   29.2610   19.2200 C.3    16  PRO16       0.0939
     25  N         84.6410   35.0640   22.7210 N.3    32  GLN32      -0.1231
     26  CA        84.9720   33.6900   23.1050 C.3    32  GLN32       0.1698
     27  C         86.2490   33.6770   23.9520 C.2    32  GLN32       0.2592
     28  O         87.2130   34.3790   23.6530 O.2    32  GLN32      -0.2718
     29  CB        85.1560   32.8230   21.8540 C.3    32  GLN32       0.0381
     30  CG        85.5970   31.4030   22.1470 C.3    32  GLN32       0.0905
     31  CD        85.6570   30.5450   20.9010 C.2    32  GLN32       0.2608
     32  OE1       85.8460   31.0490   19.7960 O.2    32  GLN32      -0.2717
     33  NE2       85.5140   29.2390   21.0750 N.am   32  GLN32      -0.0878
     34  N         86.2570   32.8620   24.9980 N.am   33  GLY33      -0.1957
     35  CA        87.4050   32.8150   25.8830 C.3    33  GLY33       0.1869
     36  C         88.5850   31.9020   25.5900 C.2    33  GLY33       0.2309
     37  O         88.5310   30.6960   25.8300 O.2    33  GLY33      -0.2863
     38  N         84.3520   19.9250   28.2660 N.3    88  THR88      -0.1218
     39  CA        83.1420   19.8910   27.4540 C.3    88  THR88       0.1862
     40  C         82.5780   18.4750   27.4150 C.2    88  THR88       0.2287
     41  O         81.3780   18.2800   27.6110 O.2    88  THR88      -0.2866
     42  CB        83.4000   20.3880   26.0030 C.3    88  THR88       0.1770
     43  OG1       83.6100   21.8040   26.0240 O.3    88  THR88      -0.2211
     44  CG2       82.1980   20.0990   25.1100 C.3    88  THR88       0.0375
     45  N         76.5170   28.6460   31.3590 N.3   112  PHE112     -0.1227
     46  CA        77.5910   28.4000   30.4070 C.3   112  PHE112      0.1736
     47  C         76.9450   27.7650   29.1680 C.2   112  PHE112      0.2595
     48  O         75.9610   27.0360   29.2760 O.2   112  PHE112     -0.2718
     49  CB        78.6560   27.4700   31.0280 C.3   112  PHE112      0.0547
     50  CG        79.7780   27.1220   30.0890 C.ar  112  PHE112     -0.0202
     51  CD1       79.9610   25.8130   29.6610 C.ar  112  PHE112     -0.0042
     52  CD2       80.5920   28.1200   29.5540 C.ar  112  PHE112     -0.0042
     53  CE1       80.9280   25.4990   28.7080 C.ar  112  PHE112     -0.0003
     54  CE2       81.5620   27.8160   28.6000 C.ar  112  PHE112     -0.0003
     55  CZ        81.7290   26.5030   28.1740 C.ar  112  PHE112     -0.0000
     56  N         77.5170   28.0410   28.0010 N.am  113  ASP113     -0.1960
     57  CA        77.0020   27.5750   26.7070 C.3   113  ASP113      0.1840
     58  C         76.5220   26.1290   26.5170 C.2   113  ASP113      0.2621
     59  O         75.5530   25.9080   25.7960 O.2   113  ASP113     -0.2715
     60  CB        78.0350   27.9020   25.6130 C.3   113  ASP113      0.1450
     61  CG        77.4620   27.8000   24.2100 C.2   113  ASP113      0.3671
     62  OD1       76.4400   28.4580   23.9330 O.co2 113  ASP113     -0.2456
     63  OD2       78.0390   27.0660   23.3790 O.co2 113  ASP113     -0.2456
     64  N         77.1700   25.1490   27.1460 N.am  114  VAL114     -0.1977
     65  CA        76.7690   23.7480   26.9440 C.3   114  VAL114      0.1596
     66  C         75.7570   23.1320   27.9210 C.2   114  VAL114      0.2287
     67  O         75.2450   22.0400   27.6700 O.2   114  VAL114     -0.2864
     68  CB        78.0110   22.8080   26.9150 C.3   114  VAL114      0.0276
     69  CG1       79.0920   23.3850   25.9950 C.3   114  VAL114      0.0022
     70  CG2       78.5540   22.6040   28.3300 C.3   114  VAL114      0.0022
     71  N         81.3740   31.3800   35.1350 N.3   163  ASN163     -0.1240
     72  CA        81.4170   31.9870   33.8140 C.3   163  ASN163      0.1653
     73  C         79.9370   32.1950   33.4780 C.2   163  ASN163      0.2266
     74  O         79.1810   31.2320   33.4460 O.2   163  ASN163     -0.2867
     75  CB        82.0600   31.0010   32.8330 C.3   163  ASN163      0.1155
     76  CG        82.0520   31.5000   31.4090 C.2   163  ASN163      0.2627
     77  OD1       81.5490   32.5870   31.1210 O.2   163  ASN163     -0.2716
     78  ND2       82.6150   30.7050   30.5030 N.am  163  ASN163     -0.0877
     79  N         92.0560   25.3200   30.4580 N.3   222  LYS222     -0.1245
     80  CA        91.7600   26.5150   31.2390 C.3   222  LYS222      0.1561
     81  C         92.7510   26.6670   32.3930 C.2   222  LYS222      0.2260
     82  O         92.8140   27.7180   33.0190 O.2   222  LYS222     -0.2867
     83  CB        90.3180   26.4690   31.7700 C.3   222  LYS222      0.0271
     84  CG        89.2430   26.5430   30.6730 C.3   222  LYS222      0.0035
     85  CD        89.2700   27.8820   29.9160 C.3   222  LYS222      0.0206
     86  CE        88.1890   27.9590   28.8180 C.3   222  LYS222      0.1093
     87  NZ        86.9110   27.5830   29.4500 N.3   222  LYS222     -0.1314
     88  N         86.7650   36.6950   32.8100 N.3   309  PHE309     -0.1241
     89  CA        85.6300   37.3900   32.2060 C.3   309  PHE309      0.1605
     90  C         85.0840   38.4380   33.1730 C.2   309  PHE309      0.2264
     91  O         85.2230   38.3120   34.3880 O.2   309  PHE309     -0.2867
     92  CB        84.4800   36.4190   31.9040 C.3   309  PHE309      0.0534
     93  CG        84.8250   35.3300   30.9300 C.ar  309  PHE309     -0.0203
     94  CD1       85.0720   35.6240   29.5950 C.ar  309  PHE309     -0.0042
     95  CD2       84.8830   34.0050   31.3490 C.ar  309  PHE309     -0.0042
     96  CE1       85.3720   34.6060   28.6870 C.ar  309  PHE309     -0.0003
     97  CE2       85.1810   32.9780   30.4550 C.ar  309  PHE309     -0.0003
     98  CZ        85.4260   33.2780   29.1200 C.ar  309  PHE309     -0.0000
     99  N         79.4640   40.5960   28.0320 N.3   347  ARG347     -0.1245
    100  CA        80.5800   39.9120   28.6780 C.3   347  ARG347      0.1563
    101  C         81.8710   40.2680   27.9410 C.2   347  ARG347      0.2260
    102  O         81.9080   40.2500   26.7080 O.2   347  ARG347     -0.2867
    103  CB        80.3970   38.3890   28.6500 C.3   347  ARG347      0.0307
    104  CG        81.4110   37.6540   29.5290 C.3   347  ARG347      0.0489
    105  CD        81.4100   36.1480   29.3020 C.3   347  ARG347      0.2205
    106  NE        82.0710   35.7930   28.0490 N.pl3 347  ARG347     -0.0865
    107  CZ        82.2830   34.5470   27.6450 C.cat 347  ARG347      0.5346
    108  NH1       81.8810   33.5270   28.3930 N.pl3 347  ARG347      0.1354
    109  NH2       82.9100   34.3230   26.5010 N.pl3 347  ARG347      0.1354
@<TRIPOS>BOND
     1    21    20    2
     2    20    19    1
     3    22    19    1
     4    22    23    1
     5    19    18    1
     6     4     3    2
     7     1     2    1
     8    23    24    1
     9     3     2    1
    10    18    24    1
    11    18     9   am
    12     2     5    1
    13    10     9    2
    14     9     8    1
    15    32    31    2
    16     5     6    1
    17     7     8    1
    18     8    11    1
    19    31    33   am
    20    31    30    1
    21    29    30    1
    22    29    26    1
    23    11    12    1
    24    25    26    1
    25    26    27    1
    26    12    14   ar
    27    12    13   ar
    28    63    61   ar
    29    14    16   ar
    30    28    27    2
    31    62    61   ar
    32    27    34   am
    33    13    15   ar
    34    61    60    1
    35    16    17   ar
    36    34    35    1
    37    15    17   ar
    38    44    42    1
    39    36    37    2
    40    36    35    1
    41    60    57    1
    42    59    58    2
    43    69    68    1
    44    42    43    1
    45    42    39    1
    46   109   107    1
    47    58    57    1
    48    58    64   am
    49    57    56    1
    50   102   101    2
    51    68    65    1
    52    68    70    1
    53    65    64    1
    54    65    66    1
    55    40    39    1
    56    40    41    2
    57    39    38    1
    58   107   106    2
    59   107   108    1
    60    67    66    2
    61   101   100    1
    62    56    47   am
    63    99   100    1
    64   106   105    1
    65    55    54   ar
    66    55    53   ar
    67    54    52   ar
    68   103   100    1
    69   103   104    1
    70    96    98   ar
    71    96    94   ar
    72    53    51   ar
    73    86    87    1
    74    86    85    1
    75    98    97   ar
    76    47    48    2
    77    47    46    1
    78   105   104    1
    79    52    50   ar
    80    94    93   ar
    81    51    50   ar
    82    85    84    1
    83    50    49    1
    84    46    49    1
    85    46    45    1
    86    97    95   ar
    87    79    80    1
    88    78    76   am
    89    84    83    1
    90    93    95   ar
    91    93    92    1
    92    77    76    2
    93    80    83    1
    94    80    81    1
    95    76    75    1
    96    92    89    1
    97    89    88    1
    98    89    90    1
    99    81    82    2
   100    75    72    1
   101    90    91    2
   102    74    73    2
   103    73    72    1
   104    72    71    1
