@<TRIPOS>MOLECULE
tmp/1v2kA00.pdb
 164 164 0 0 0
SMALL
GASTEIGER

@<TRIPOS>ATOM
      1  N         43.8640   71.4630  -39.0630 N.3    40  HIS40      -0.1241
      2  CA        44.7550   72.6030  -38.8570 C.3    40  HIS40       0.1621
      3  C         45.8570   72.6510  -39.9100 C.2    40  HIS40       0.2264
      4  O         46.6430   73.5940  -39.9580 O.2    40  HIS40      -0.2867
      5  CB        45.3480   72.6370  -37.4250 C.3    40  HIS40       0.0745
      6  CG        46.4700   71.6710  -37.1810 C.ar   40  HIS40       0.0817
      7  ND1       46.2670   70.3890  -36.7160 N.ar   40  HIS40      -0.2268
      8  CD2       47.8130   71.8190  -37.2950 C.ar   40  HIS40       0.1154
      9  CE1       47.4330   69.7910  -36.5500 C.ar   40  HIS40       0.1986
     10  NE2       48.3880   70.6370  -36.8940 N.ar   40  HIS40      -0.2212
     11  N         40.2090   76.5720  -31.9680 N.3    79  GLU79      -0.1231
     12  CA        40.5810   77.0670  -30.6540 C.3    79  GLU79       0.1699
     13  C         40.7240   75.9160  -29.6660 C.2    79  GLU79       0.2593
     14  O         41.5210   75.9830  -28.7270 O.2    79  GLU79      -0.2718
     15  CB        39.5140   78.0480  -30.1700 C.3    79  GLU79       0.0402
     16  CG        39.9950   79.0650  -29.1730 C.3    79  GLU79       0.1161
     17  CD        38.9640   80.1450  -28.9390 C.2    79  GLU79       0.3649
     18  OE1       38.5080   80.7480  -29.9360 O.co2  79  GLU79      -0.2457
     19  OE2       38.6130   80.3890  -27.7660 O.co2  79  GLU79      -0.2457
     20  N         39.9530   74.8580  -29.8820 N.am   80  THR80      -0.1939
     21  CA        39.9990   73.6990  -28.9990 C.3    80  THR80       0.2028
     22  C         40.6070   72.4800  -29.6810 C.2    80  THR80       0.2642
     23  O         40.9140   71.4870  -29.0210 O.2    80  THR80      -0.2714
     24  CB        38.5900   73.3160  -28.5180 C.3    80  THR80       0.1808
     25  OG1       37.7980   72.9160  -29.6430 O.3    80  THR80      -0.2208
     26  CG2       37.9210   74.4980  -27.8290 C.3    80  THR80       0.0379
     27  N         40.7720   72.5620  -31.0010 N.am   81  TYR81      -0.1973
     28  CA        41.3190   71.4670  -31.7960 C.3    81  TYR81       0.1639
     29  C         40.3640   70.2830  -31.9150 C.2    81  TYR81       0.2290
     30  O         40.7420   69.2220  -32.4070 O.2    81  TYR81      -0.2864
     31  CB        42.6540   70.9940  -31.2110 C.3    81  TYR81       0.0560
     32  CG        43.8360   71.7590  -31.7440 C.ar   81  TYR81      -0.0198
     33  CD1       44.6020   71.2510  -32.7910 C.ar   81  TYR81      -0.0009
     34  CD2       44.1680   73.0040  -31.2280 C.ar   81  TYR81      -0.0009
     35  CE1       45.6720   71.9620  -33.3080 C.ar   81  TYR81       0.0417
     36  CE2       45.2350   73.7280  -31.7380 C.ar   81  TYR81       0.0417
     37  CZ        45.9850   73.2010  -32.7780 C.ar   81  TYR81       0.1957
     38  OH        47.0520   73.9130  -33.2760 O.3    81  TYR81      -0.2866
     39  N         45.2380   71.3330  -21.3060 N.3   154  PHE154     -0.1227
     40  CA        44.0210   71.7330  -21.9910 C.3   154  PHE154      0.1736
     41  C         42.9700   70.6380  -21.9810 C.2   154  PHE154      0.2595
     42  O         43.2500   69.4960  -21.6160 O.2   154  PHE154     -0.2718
     43  CB        44.3460   72.1380  -23.4260 C.3   154  PHE154      0.0547
     44  CG        45.4040   73.1960  -23.5220 C.ar  154  PHE154     -0.0202
     45  CD1       46.6700   72.8910  -24.0120 C.ar  154  PHE154     -0.0042
     46  CD2       45.1410   74.4980  -23.1080 C.ar  154  PHE154     -0.0042
     47  CE1       47.6580   73.8710  -24.0870 C.ar  154  PHE154     -0.0003
     48  CE2       46.1180   75.4810  -23.1790 C.ar  154  PHE154     -0.0003
     49  CZ        47.3800   75.1680  -23.6690 C.ar  154  PHE154     -0.0000
     50  N         41.7570   70.9980  -22.3880 N.am  155  ILE155     -0.1980
     51  CA        40.6480   70.0540  -22.4080 C.3   155  ILE155      0.1595
     52  C         40.7790   69.0080  -23.5080 C.2   155  ILE155      0.2287
     53  O         40.9650   69.3370  -24.6780 O.2   155  ILE155     -0.2864
     54  CB        39.3000   70.7810  -22.5900 C.3   155  ILE155      0.0276
     55  CG1       39.1100   71.8210  -21.4830 C.3   155  ILE155      0.0022
     56  CG2       38.1630   69.7750  -22.5620 C.3   155  ILE155      0.0022
     57  CD1       38.9800   71.2330  -20.1030 C.3   155  ILE155      0.0001
     58  N         58.1180   61.2010  -29.2710 N.3   171  ASP171     -0.1225
     59  CA        56.8710   61.9220  -29.5260 C.3   171  ASP171      0.1805
     60  C         56.8610   62.4290  -30.9660 C.2   171  ASP171      0.2598
     61  O         57.8700   62.3410  -31.6710 O.2   171  ASP171     -0.2718
     62  CB        56.8090   63.1130  -28.5630 C.3   171  ASP171      0.1424
     63  CG        55.4570   63.7910  -28.5170 C.2   171  ASP171      0.3668
     64  OD1       55.3900   64.8480  -27.8630 O.co2 171  ASP171     -0.2456
     65  OD2       54.4710   63.2880  -29.0980 O.co2 171  ASP171     -0.2456
     66  N         55.7120   62.9380  -31.4010 N.am  172  ALA172     -0.1966
     67  CA        55.5890   63.5100  -32.7320 C.3   172  ALA172      0.1728
     68  C         56.0450   64.9540  -32.5250 C.2   172  ALA172      0.2616
     69  O         56.3110   65.3560  -31.3930 O.2   172  ALA172     -0.2715
     70  CB        54.1300   63.4620  -33.1980 C.3   172  ALA172      0.0334
     71  N         56.1420   65.7400  -33.5890 N.am  173  CYS173     -0.1954
     72  CA        56.5760   67.1210  -33.4170 C.3   173  CYS173      0.1843
     73  C         56.1470   67.9870  -34.5960 C.2   173  CYS173      0.2625
     74  O         55.4240   67.5340  -35.4840 O.2   173  CYS173     -0.2714
     75  CB        58.1040   67.1750  -33.2330 C.3   173  CYS173      0.0997
     76  SG        58.7450   68.7080  -32.4620 S.3   173  CYS173     -0.0797
     77  N         56.5860   69.2380  -34.5850 N.am  174  GLN174     -0.1977
     78  CA        56.2670   70.1900  -35.6420 C.3   174  GLN174      0.1601
     79  C         56.6120   69.5780  -37.0050 C.2   174  GLN174      0.2287
     80  O         57.7460   69.1640  -37.2360 O.2   174  GLN174     -0.2864
     81  CB        57.0700   71.4760  -35.4090 C.3   174  GLN174      0.0394
     82  CG        56.5520   72.7150  -36.1200 C.3   174  GLN174      0.0908
     83  CD        56.6250   72.6040  -37.6270 C.2   174  GLN174      0.2608
     84  OE1       57.6840   72.3080  -38.1930 O.2   174  GLN174     -0.2717
     85  NE2       55.4990   72.8470  -38.2940 N.am  174  GLN174     -0.0878
     86  N         52.2740   66.8390  -38.0820 N.3   177  SER177     -0.1217
     87  CA        50.8370   67.0760  -38.0970 C.3   177  SER177      0.1889
     88  C         50.1400   66.5080  -39.3230 C.2   177  SER177      0.2288
     89  O         50.6490   66.6090  -40.4400 O.2   177  SER177     -0.2866
     90  CB        50.5560   68.5790  -38.0100 C.3   177  SER177      0.2089
     91  OG        50.8850   69.0910  -36.7290 O.3   177  SER177     -0.2183
     92  N         47.9560   62.7930  -36.3590 N.3   191  VAL191     -0.1231
     93  CA        48.8230   63.6370  -35.5380 C.3   191  VAL191      0.1692
     94  C         48.1650   65.0210  -35.4650 C.2   191  VAL191      0.2593
     95  O         48.0370   65.7130  -36.4730 O.2   191  VAL191     -0.2718
     96  CB        50.2440   63.7310  -36.1540 C.3   191  VAL191      0.0266
     97  CG1       51.1580   64.5610  -35.2610 C.3   191  VAL191      0.0020
     98  CG2       50.8220   62.3240  -36.3290 C.3   191  VAL191      0.0020
     99  N         47.7350   65.4090  -34.2660 N.am  192  SER192     -0.1938
    100  CA        47.0400   66.6770  -34.0550 C.3   192  SER192      0.2055
    101  C         47.8090   67.7350  -33.2640 C.2   192  SER192      0.2643
    102  O         48.2220   68.7490  -33.8170 O.2   192  SER192     -0.2714
    103  CB        45.6900   66.4100  -33.3760 C.3   192  SER192      0.2130
    104  OG        44.9410   67.6050  -33.2110 O.3   192  SER192     -0.2179
    105  N         48.0030   67.5190  -31.9700 N.am  193  TRP193     -0.1959
    106  CA        48.7140   68.5200  -31.1910 C.3   193  TRP193      0.1771
    107  C         49.4070   68.0040  -29.9440 C.2   193  TRP193      0.2620
    108  O         49.2150   66.8600  -29.5210 O.2   193  TRP193     -0.2715
    109  CB        47.7600   69.6510  -30.7900 C.3   193  TRP193      0.0590
    110  CG        46.6080   69.2080  -29.9370 C.ar  193  TRP193      0.0006
    111  CD1       45.4140   68.7130  -30.3660 C.ar  193  TRP193      0.0946
    112  CD2       46.5430   69.2280  -28.5050 C.ar  193  TRP193      0.0152
    113  NE1       44.6030   68.4280  -29.2920 N.ar  193  TRP193     -0.2442
    114  CE2       45.2730   68.7340  -28.1380 C.ar  193  TRP193      0.0810
    115  CE3       47.4360   69.6170  -27.4950 C.ar  193  TRP193      0.0012
    116  CZ2       44.8680   68.6200  -26.8020 C.ar  193  TRP193      0.0191
    117  CZ3       47.0330   69.5030  -26.1670 C.ar  193  TRP193      0.0001
    118  CH2       45.7590   69.0090  -25.8350 C.ar  193  TRP193      0.0015
    119  N         50.2140   68.8810  -29.3610 N.am  194  GLY194     -0.1940
    120  CA        50.9400   68.5570  -28.1490 C.3   194  GLY194      0.2014
    121  C         51.4900   69.8220  -27.5220 C.2   194  GLY194      0.2639
    122  O         51.5800   70.8620  -28.1760 O.2   194  GLY194     -0.2714
    123  N         51.8370   69.7400  -26.2430 N.am  195  GLU195     -0.1963
    124  CA        52.4080   70.8740  -25.5320 C.3   195  GLU195      0.1733
    125  C         53.9220   70.6860  -25.6190 C.2   195  GLU195      0.2617
    126  O         54.5550   70.1530  -24.7040 O.2   195  GLU195     -0.2715
    127  CB        51.9450   70.8690  -24.0760 C.3   195  GLU195      0.0429
    128  CG        50.4360   70.7130  -23.9300 C.3   195  GLU195      0.1163
    129  CD        49.9510   70.9270  -22.5120 C.2   195  GLU195      0.3649
    130  OE1       49.0310   70.1990  -22.0870 O.co2 195  GLU195     -0.2457
    131  OE2       50.4790   71.8270  -21.8280 O.co2 195  GLU195     -0.2457
    132  N         54.4960   71.1190  -26.7350 N.am  196  GLY196     -0.1940
    133  CA        55.9220   70.9550  -26.9360 C.3   196  GLY196      0.2014
    134  C         56.1360   69.6130  -27.6100 C.2   196  GLY196      0.2639
    135  O         55.1900   69.0360  -28.1440 O.2   196  GLY196     -0.2714
    136  N         57.3650   69.1120  -27.5840 N.am  197  CYS197     -0.1967
    137  CA        57.6760   67.8290  -28.2040 C.3   197  CYS197      0.1712
    138  C         58.5040   66.9480  -27.2790 C.2   197  CYS197      0.2296
    139  O         59.5790   67.3490  -26.8270 O.2   197  CYS197     -0.2864
    140  CB        58.4570   68.0320  -29.5090 C.3   197  CYS197      0.0983
    141  SG        57.5790   68.9510  -30.8120 S.3   197  CYS197     -0.0798
    142  N         51.5450   62.9020  -26.8030 N.3   204  GLY204     -0.1210
    143  CA        50.9640   63.4480  -28.0110 C.3   204  GLY204      0.1956
    144  C         49.4590   63.2410  -27.9950 C.2   204  GLY204      0.2612
    145  O         48.9730   62.2390  -27.4700 O.2   204  GLY204     -0.2717
    146  N         48.7180   64.1970  -28.5520 N.am  205  VAL205     -0.1965
    147  CA        47.2620   64.1080  -28.6150 C.3   205  VAL205      0.1727
    148  C         46.8770   63.8840  -30.0670 C.2   205  VAL205      0.2616
    149  O         47.3520   64.5900  -30.9580 O.2   205  VAL205     -0.2715
    150  CB        46.5980   65.3910  -28.1020 C.3   205  VAL205      0.0290
    151  CG1       45.0810   65.2460  -28.1620 C.3   205  VAL205      0.0023
    152  CG2       47.0620   65.6760  -26.6730 C.3   205  VAL205      0.0023
    153  N         46.0030   62.9140  -30.3010 N.am  206  TYR206     -0.1974
    154  CA        45.6100   62.5640  -31.6540 C.3   206  TYR206      0.1639
    155  C         44.1070   62.5740  -31.9130 C.2   206  TYR206      0.2290
    156  O         43.3040   62.3730  -31.0030 O.2   206  TYR206     -0.2864
    157  CB        46.1730   61.1760  -31.9780 C.3   206  TYR206      0.0560
    158  CG        47.6790   61.0840  -31.8300 C.ar  206  TYR206     -0.0198
    159  CD1       48.5120   61.1470  -32.9480 C.ar  206  TYR206     -0.0009
    160  CD2       48.2750   60.9840  -30.5680 C.ar  206  TYR206     -0.0009
    161  CE1       49.9060   61.1180  -32.8170 C.ar  206  TYR206      0.0417
    162  CE2       49.6650   60.9540  -30.4260 C.ar  206  TYR206      0.0417
    163  CZ        50.4740   61.0230  -31.5560 C.ar  206  TYR206      0.1957
    164  OH        51.8450   61.0100  -31.4330 O.3   206  TYR206     -0.2866
@<TRIPOS>BOND
     1    89    88    2
     2     4     3    2
     3     3     2    1
     4    88    87    1
     5     1     2    1
     6     2     5    1
     7    85    83   am
     8    84    83    2
     9    87    86    1
    10    87    90    1
    11    90    91    1
    12    83    82    1
    13     5     6    1
    14     8     6   ar
    15     8    10   ar
    16    80    79    2
    17     6     7   ar
    18    79    78    1
    19    10     9   ar
    20     7     9   ar
    21    95    94    2
    22    92    93    1
    23    98    96    1
    24    96    93    1
    25    96    97    1
    26    82    81    1
    27    78    81    1
    28    78    77    1
    29    93    94    1
    30    74    73    2
    31    94    99   am
    32    73    77   am
    33    73    72    1
    34    99   100    1
    35   100   103    1
    36   100   101    1
    37   102   101    2
    38    71    72    1
    39    71    68   am
    40    72    75    1
    41   103   104    1
    42    35    33   ar
    43    35    37   ar
    44    38    37    1
    45   101   105   am
    46    75    76    1
    47    70    67    1
    48   159   161   ar
    49   159   158   ar
    50   161   163   ar
    51    33    32   ar
    52    37    36   ar
    53    67    68    1
    54    67    66    1
    55    68    69    2
    56    76   141    1
    57    30    29    2
    58   157   158    1
    59   157   154    1
    60   105   106    1
    61    11    12    1
    62    29    28    1
    63   155   154    1
    64   155   156    2
    65   158   160   ar
    66    28    31    1
    67    28    27    1
    68    32    34   ar
    69    32    31    1
    70    36    34   ar
    71    61    60    2
    72   154   153    1
    73   163   164    1
    74   163   162   ar
    75    66    60   am
    76   106   109    1
    77   106   107    1
    78    27    22   am
    79    60    59    1
    80   149   148    2
    81   141   140    1
    82   109   110    1
    83    12    15    1
    84    12    13    1
    85   160   162   ar
    86   111   110   ar
    87   111   113   ar
    88   153   148   am
    89    15    16    1
    90   148   147    1
    91   107   108    2
    92   107   119   am
    93   110   112   ar
    94    18    17   ar
    95    20    13   am
    96    20    21    1
    97    22    23    2
    98    22    21    1
    99    13    14    2
   100    25    24    1
   101    59    58    1
   102    59    62    1
   103   140   137    1
   104   119   120    1
   105   113   114   ar
   106    16    17    1
   107    65    63   ar
   108    21    24    1
   109    17    19   ar
   110   147   146    1
   111   147   150    1
   112    62    63    1
   113   146   144   am
   114    24    26    1
   115    63    64   ar
   116   112   114   ar
   117   112   115   ar
   118   137   136    1
   119   137   138    1
   120   122   121    2
   121   151   150    1
   122   120   121    1
   123   135   134    2
   124   114   116   ar
   125   150   152    1
   126   143   144    1
   127   143   142    1
   128   144   145    2
   129   134   136   am
   130   134   133    1
   131   121   123   am
   132   115   117   ar
   133   138   139    2
   134   133   132    1
   135   116   118   ar
   136   132   125   am
   137   123   124    1
   138   117   118   ar
   139   125   124    1
   140   125   126    2
   141   124   127    1
   142    53    52    2
   143    47    45   ar
   144    47    49   ar
   145   127   128    1
   146    45    44   ar
   147   128   129    1
   148    49    48   ar
   149    44    43    1
   150    44    46   ar
   151    52    51    1
   152    43    40    1
   153    48    46   ar
   154    54    56    1
   155    54    51    1
   156    54    55    1
   157   129   130   ar
   158   129   131   ar
   159    51    50    1
   160    50    41   am
   161    40    41    1
   162    40    39    1
   163    41    42    2
   164    55    57    1
