@<TRIPOS>MOLECULE
tmp/1v2nA00.pdb
 165 163 0 0 0
SMALL
GASTEIGER

@<TRIPOS>ATOM
      1  N         36.0590   23.6510   46.0260 N.3    40  HIS40      -0.1241
      2  CA        36.9680   24.7460   46.3450 C.3    40  HIS40       0.1621
      3  C         38.0520   24.9020   45.2810 C.2    40  HIS40       0.2264
      4  O         38.8560   25.8310   45.3320 O.2    40  HIS40      -0.2867
      5  CB        37.5790   24.5900   47.7540 C.3    40  HIS40       0.0745
      6  CG        38.7030   23.6150   47.8470 C.ar   40  HIS40       0.0817
      7  ND1       38.5320   22.2960   48.2280 N.ar   40  HIS40      -0.2268
      8  CD2       40.0410   23.7660   47.6530 C.ar   40  HIS40       0.1154
      9  CE1       39.6980   21.6920   48.2670 C.ar   40  HIS40       0.1986
     10  NE2       40.6340   22.5580   47.9220 N.ar   40  HIS40      -0.2212
     11  N         31.3380   27.3580   51.3560 N.3    78  SER78      -0.1202
     12  CA        32.7570   27.6920   51.4570 C.3    78  SER78       0.2020
     13  C         33.2430   28.0360   52.8640 C.2    78  SER78       0.2619
     14  O         34.4390   28.2080   53.0820 O.2    78  SER78      -0.2717
     15  CB        33.0980   28.8440   50.5080 C.3    78  SER78       0.2103
     16  OG        32.4360   30.0360   50.8910 O.3    78  SER78      -0.2182
     17  N         32.3250   28.1360   53.8180 N.am   79  GLU79      -0.1965
     18  CA        32.7020   28.4600   55.1910 C.3    79  GLU79       0.1733
     19  C         33.1040   27.1990   55.9540 C.2    79  GLU79       0.2617
     20  O         34.0930   27.1900   56.6890 O.2    79  GLU79      -0.2715
     21  CB        31.5320   29.1540   55.9050 C.3    79  GLU79       0.0429
     22  CG        31.7730   29.4650   57.3820 C.3    79  GLU79       0.1163
     23  CD        30.6190   30.2270   58.0270 C.2    79  GLU79       0.3649
     24  OE1       29.4820   29.7050   58.0420 O.co2  79  GLU79      -0.2457
     25  OE2       30.8490   31.3510   58.5230 O.co2  79  GLU79      -0.2457
     26  N         32.3350   26.1340   55.7650 N.am   80  THR80      -0.1937
     27  CA        32.5850   24.8640   56.4390 C.3    80  THR80       0.2028
     28  C         33.1240   23.7980   55.4890 C.2    80  THR80       0.2642
     29  O         33.5740   22.7400   55.9280 O.2    80  THR80      -0.2714
     30  CB        31.2930   24.3140   57.0320 C.3    80  THR80       0.1808
     31  OG1       30.3380   24.1360   55.9760 O.3    80  THR80      -0.2208
     32  CG2       30.7270   25.2700   58.0740 C.3    80  THR80       0.0379
     33  N         33.0640   24.0910   54.1920 N.am   81  TYR81      -0.1973
     34  CA        33.4870   23.1750   53.1320 C.3    81  TYR81       0.1639
     35  C         32.5570   21.9690   53.0090 C.2    81  TYR81       0.2290
     36  O         32.9270   20.9410   52.4400 O.2    81  TYR81      -0.2864
     37  CB        34.9330   22.7050   53.3300 C.3    81  TYR81       0.0560
     38  CG        35.9550   23.5960   52.6520 C.ar   81  TYR81      -0.0198
     39  CD1       37.1030   23.0550   52.0650 C.ar   81  TYR81      -0.0009
     40  CD2       35.7790   24.9800   52.5990 C.ar   81  TYR81      -0.0009
     41  CE1       38.0430   23.8710   51.4360 C.ar   81  TYR81       0.0417
     42  CE2       36.7120   25.8010   51.9780 C.ar   81  TYR81       0.0417
     43  CZ        37.8410   25.2430   51.4010 C.ar   81  TYR81       0.1957
     44  OH        38.7670   26.0620   50.7950 O.3    81  TYR81      -0.2866
     45  N         35.5570   20.5810   63.0090 N.3   155  ILE155     -0.1245
     46  CA        34.1110   20.5930   62.8520 C.3   155  ILE155      0.1561
     47  C         33.8520   19.8080   61.5700 C.2   155  ILE155      0.2260
     48  O         34.0660   20.3110   60.4690 O.2   155  ILE155     -0.2867
     49  CB        33.5720   22.0330   62.7030 C.3   155  ILE155      0.0252
     50  CG1       33.7330   22.7800   64.0290 C.3   155  ILE155      0.0019
     51  CG2       32.1130   22.0080   62.2760 C.3   155  ILE155      0.0019
     52  CD1       32.9590   22.1660   65.1810 C.3   155  ILE155      0.0001
     53  N         50.3710   12.6330   55.1050 N.3   171  ASP171     -0.1225
     54  CA        49.1250   13.3490   54.8650 C.3   171  ASP171      0.1805
     55  C         49.0970   13.9330   53.4530 C.2   171  ASP171      0.2598
     56  O         50.1050   13.9260   52.7440 O.2   171  ASP171     -0.2718
     57  CB        49.0420   14.4810   55.9020 C.3   171  ASP171      0.1424
     58  CG        47.6840   15.1640   55.9620 C.2   171  ASP171      0.3668
     59  OD1       47.6100   16.1980   56.6570 O.co2 171  ASP171     -0.2456
     60  OD2       46.7050   14.6910   55.3480 O.co2 171  ASP171     -0.2456
     61  N         47.9280   14.4120   53.0420 N.am  172  ALA172     -0.1966
     62  CA        47.7810   15.0620   51.7460 C.3   172  ALA172      0.1728
     63  C         48.1740   16.4950   52.0820 C.2   172  ALA172      0.2616
     64  O         48.4390   16.7940   53.2440 O.2   172  ALA172     -0.2715
     65  CB        46.3350   15.0090   51.2840 C.3   172  ALA172      0.0334
     66  N         48.2080   17.3840   51.0980 N.am  173  CYS173     -0.1954
     67  CA        48.5870   18.7630   51.3820 C.3   173  CYS173      0.1843
     68  C         48.0690   19.6930   50.2890 C.2   173  CYS173      0.2625
     69  O         47.3750   19.2540   49.3720 O.2   173  CYS173     -0.2714
     70  CB        50.1150   18.8490   51.4980 C.3   173  CYS173      0.0997
     71  SG        50.7670   20.3010   52.3820 S.3   173  CYS173     -0.0797
     72  N         48.3780   20.9820   50.3930 N.am  174  GLN174     -0.1977
     73  CA        47.9330   21.9240   49.3780 C.3   174  GLN174      0.1601
     74  C         48.5030   21.4850   48.0360 C.2   174  GLN174      0.2287
     75  O         49.6710   21.1120   47.9390 O.2   174  GLN174     -0.2864
     76  CB        48.3950   23.3410   49.7230 C.3   174  GLN174      0.0394
     77  CG        47.6750   23.9270   50.9270 C.3   174  GLN174      0.0908
     78  CD        47.9640   25.4030   51.1230 C.2   174  GLN174      0.2608
     79  OE1       49.0730   25.7880   51.4900 O.2   174  GLN174     -0.2717
     80  NE2       46.9630   26.2380   50.8670 N.am  174  GLN174     -0.0878
     81  N         44.5090   19.0000   46.5810 N.3   177  SER177     -0.1217
     82  CA        43.0770   19.3080   46.5570 C.3   177  SER177      0.1889
     83  C         42.3340   18.7830   45.3270 C.2   177  SER177      0.2288
     84  O         42.7980   18.9390   44.1930 O.2   177  SER177     -0.2866
     85  CB        42.8640   20.8270   46.6400 C.3   177  SER177      0.2089
     86  OG        43.2130   21.3460   47.9110 O.3   177  SER177     -0.2183
     87  N         40.1240   14.9270   48.0860 N.3   191  VAL191     -0.1231
     88  CA        40.9490   15.7190   49.0040 C.3   191  VAL191      0.1692
     89  C         40.2730   17.0730   49.2060 C.2   191  VAL191      0.2593
     90  O         40.1970   17.8800   48.2720 O.2   191  VAL191     -0.2718
     91  CB        42.3670   15.9360   48.4390 C.3   191  VAL191      0.0266
     92  CG1       43.2110   16.7190   49.4390 C.3   191  VAL191      0.0020
     93  CG2       43.0090   14.5950   48.1460 C.3   191  VAL191      0.0020
     94  N         39.7920   17.3260   50.4200 N.am  192  SER192     -0.1938
     95  CA        39.0700   18.5630   50.7070 C.3   192  SER192      0.2055
     96  C         39.8060   19.6190   51.5220 C.2   192  SER192      0.2643
     97  O         40.0640   20.7120   51.0230 O.2   192  SER192     -0.2714
     98  CB        37.7380   18.2330   51.3900 C.3   192  SER192      0.2130
     99  OG        36.9450   19.3990   51.5630 O.3   192  SER192     -0.2179
    100  N         40.1260   19.3190   52.7750 N.am  193  TRP193     -0.1959
    101  CA        40.8270   20.2970   53.6010 C.3   193  TRP193      0.1771
    102  C         41.5690   19.6940   54.7840 C.2   193  TRP193      0.2620
    103  O         41.6060   18.4800   54.9670 O.2   193  TRP193     -0.2715
    104  CB        39.8500   21.3720   54.1090 C.3   193  TRP193      0.0590
    105  CG        38.7450   20.8630   55.0010 C.ar  193  TRP193      0.0006
    106  CD1       37.5840   20.2560   54.6100 C.ar  193  TRP193      0.0946
    107  CD2       38.6970   20.9240   56.4320 C.ar  193  TRP193      0.0152
    108  NE1       36.8150   19.9430   55.7070 N.ar  193  TRP193     -0.2442
    109  CE2       37.4760   20.3460   56.8410 C.ar  193  TRP193      0.0810
    110  CE3       39.5720   21.4240   57.4130 C.ar  193  TRP193      0.0012
    111  CZ2       37.1030   20.2410   58.1850 C.ar  193  TRP193      0.0191
    112  CZ3       39.2010   21.3200   58.7510 C.ar  193  TRP193      0.0001
    113  CH2       37.9760   20.7350   59.1230 C.ar  193  TRP193      0.0015
    114  N         42.1760   20.5670   55.5780 N.am  194  GLY194     -0.1940
    115  CA        42.9130   20.1280   56.7460 C.3   194  GLY194      0.2014
    116  C         43.5420   21.3440   57.3910 C.2   194  GLY194      0.2640
    117  O         43.2600   22.4710   56.9870 O.2   194  GLY194     -0.2714
    118  N         44.3830   21.1270   58.3930 N.am  195  SER195     -0.1935
    119  CA        45.0530   22.2300   59.0690 C.3   195  SER195      0.2055
    120  C         46.5450   21.9610   58.9330 C.2   195  SER195      0.2644
    121  O         47.0750   21.0420   59.5590 O.2   195  SER195     -0.2714
    122  CB        44.6460   22.2750   60.5410 C.3   195  SER195      0.2130
    123  OG        45.0900   23.4790   61.1420 O.3   195  SER195     -0.2179
    124  N         47.2210   22.7590   58.1150 N.am  196  GLY196     -0.1939
    125  CA        48.6340   22.5230   57.8930 C.3   196  GLY196      0.2014
    126  C         48.7180   21.1850   57.1750 C.2   196  GLY196      0.2639
    127  O         47.7520   20.7750   56.5280 O.2   196  GLY196     -0.2714
    128  N         49.8490   20.4960   57.2810 N.am  197  CYS197     -0.1967
    129  CA        49.9990   19.1980   56.6340 C.3   197  CYS197      0.1712
    130  C         50.8390   18.2430   57.4600 C.2   197  CYS197      0.2296
    131  O         51.9300   18.5930   57.9110 O.2   197  CYS197     -0.2864
    132  CB        50.6470   19.3480   55.2560 C.3   197  CYS197      0.0983
    133  SG        49.6870   20.3620   54.0980 S.3   197  CYS197     -0.0798
    134  N         46.1740   16.2310   63.5250 N.3   202  LYS202     -0.1245
    135  CA        45.5110   17.0450   62.5140 C.3   202  LYS202      0.1561
    136  C         45.4970   16.2530   61.2060 C.2   202  LYS202      0.2260
    137  O         46.2700   16.5360   60.2930 O.2   202  LYS202     -0.2867
    138  CB        46.2560   18.3700   62.3080 C.3   202  LYS202      0.0271
    139  CG        46.3560   19.2570   63.5430 C.3   202  LYS202      0.0035
    140  CD        45.0020   19.7930   63.9810 C.3   202  LYS202      0.0206
    141  CE        45.1440   20.7030   65.1970 C.3   202  LYS202      0.1093
    142  NZ        43.8230   21.1110   65.7430 N.3   202  LYS202     -0.1314
    143  N         43.9120   14.5820   57.5580 N.3   204  GLY204     -0.1210
    144  CA        43.2510   15.1910   56.4210 C.3   204  GLY204      0.1956
    145  C         41.7550   14.9350   56.4160 C.2   204  GLY204      0.2612
    146  O         41.2980   13.9020   56.8990 O.2   204  GLY204     -0.2717
    147  N         40.9880   15.8850   55.8840 N.am  205  VAL205     -0.1965
    148  CA        39.5370   15.7470   55.8020 C.3   205  VAL205      0.1727
    149  C         39.1850   15.5670   54.3280 C.2   205  VAL205      0.2616
    150  O         39.7270   16.2550   53.4570 O.2   205  VAL205     -0.2715
    151  CB        38.8150   16.9880   56.3740 C.3   205  VAL205      0.0290
    152  CG1       37.3120   16.7530   56.3980 C.3   205  VAL205      0.0023
    153  CG2       39.3250   17.2780   57.7810 C.3   205  VAL205      0.0023
    154  N         38.2730   14.6370   54.0630 N.am  206  TYR206     -0.1974
    155  CA        37.8760   14.2960   52.7040 C.3   206  TYR206      0.1639
    156  C         36.3690   14.3010   52.4910 C.2   206  TYR206      0.2290
    157  O         35.6000   13.9620   53.3890 O.2   206  TYR206     -0.2864
    158  CB        38.4400   12.9100   52.3750 C.3   206  TYR206      0.0560
    159  CG        39.9380   12.8510   52.5460 C.ar  206  TYR206     -0.0198
    160  CD1       40.7870   13.1740   51.4910 C.ar  206  TYR206     -0.0009
    161  CD2       40.5090   12.5680   53.7910 C.ar  206  TYR206     -0.0009
    162  CE1       42.1630   13.2310   51.6660 C.ar  206  TYR206      0.0417
    163  CE2       41.8910   12.6250   53.9780 C.ar  206  TYR206      0.0417
    164  CZ        42.7080   12.9580   52.9090 C.ar  206  TYR206      0.1957
    165  OH        44.0690   13.0370   53.0730 O.3   206  TYR206     -0.2866
@<TRIPOS>BOND
     1    84    83    2
     2     3     4    2
     3     3     2    1
     4    83    82    1
     5     1     2    1
     6     2     5    1
     7    82    81    1
     8    82    85    1
     9    85    86    1
    10     8     6   ar
    11     8    10   ar
    12     5     6    1
    13     6     7   ar
    14    10     9   ar
    15    75    74    2
    16    74    73    1
    17    87    88    1
    18    93    91    1
    19     7     9   ar
    20    90    89    2
    21    91    88    1
    22    91    92    1
    23    88    89    1
    24    89    94   am
    25    69    68    2
    26    73    76    1
    27    73    72    1
    28    76    77    1
    29    68    72   am
    30    68    67    1
    31    94    95    1
    32    15    16    1
    33    15    12    1
    34    95    98    1
    35    95    96    1
    36    44    43    1
    37    80    78   am
    38    77    78    1
    39    97    96    2
    40    66    67    1
    41    66    63   am
    42    78    79    2
    43    65    62    1
    44    11    12    1
    45    67    70    1
    46    98    99    1
    47    43    41   ar
    48    43    42   ar
    49    41    39   ar
    50    12    13    1
    51   160   162   ar
    52   160   159   ar
    53    70    71    1
    54    96   100   am
    55   162   164   ar
    56    62    63    1
    57    62    61    1
    58    42    40   ar
    59    39    38   ar
    60    63    64    2
    61   158   159    1
    62   158   155    1
    63    71   133    1
    64    36    35    2
    65   156   155    1
    66   156   157    2
    67   159   161   ar
    68    40    38   ar
    69    38    37    1
    70   155   154    1
    71    56    55    2
    72   100   101    1
    73    13    14    2
    74    13    17   am
    75   164   165    1
    76   164   163   ar
    77    35    34    1
    78    61    55   am
    79    34    37    1
    80    34    33    1
    81    55    54    1
    82   150   149    2
    83   101   104    1
    84   101   102    1
    85   161   163   ar
    86    17    18    1
    87   154   149   am
    88   133   132    1
    89   104   105    1
    90    33    28   am
    91   149   148    1
    92   106   105   ar
    93   106   108   ar
    94   102   103    2
    95   102   114   am
    96    54    53    1
    97    54    57    1
    98   105   107   ar
    99    18    21    1
   100    18    19    1
   101   132   129    1
   102    60    58   ar
   103    28    29    2
   104    28    27    1
   105   114   115    1
   106   108   109   ar
   107    26    19   am
   108    26    27    1
   109   148   147    1
   110   148   151    1
   111   147   145   am
   112    57    58    1
   113    21    22    1
   114    19    20    2
   115    58    59   ar
   116    31    30    1
   117   151   152    1
   118   151   153    1
   119   145   144    1
   120   145   146    2
   121   144   143    1
   122   107   109   ar
   123   107   110   ar
   124    27    30    1
   125   127   126    2
   126   129   128    1
   127   129   130    1
   128   115   116    1
   129   109   111   ar
   130   117   116    2
   131    30    32    1
   132   126   128   am
   133   126   125    1
   134    22    23    1
   135   116   118   am
   136   110   112   ar
   137   130   131    2
   138   125   124    1
   139    23    24   ar
   140    23    25   ar
   141   124   120   am
   142   111   113   ar
   143   118   119    1
   144   112   113   ar
   145   120   119    1
   146   120   121    2
   147   119   122    1
   148   137   136    2
   149    48    47    2
   150   122   123    1
   151   136   135    1
   152    47    46    1
   153    51    49    1
   154   138   135    1
   155   138   139    1
   156   135   134    1
   157    49    46    1
   158    49    50    1
   159    46    45    1
   160   139   140    1
   161   140   141    1
   162    50    52    1
   163   141   142    1
