@<TRIPOS>MOLECULE
tmp/1v2xA00.pdb
 127 119 0 0 0
SMALL
GASTEIGER

@<TRIPOS>ATOM
      1  N         -8.9250    1.2880   12.1770 N.3    99  THR99      -0.1203
      2  CA        -9.2500    1.4860   10.7830 C.3    99  THR99       0.1994
      3  C        -10.5910    0.8190   10.6360 C.2    99  THR99       0.2618
      4  O        -10.8130   -0.2940   11.1440 O.2    99  THR99      -0.2717
      5  CB        -8.2170    0.8540    9.8430 C.3    99  THR99       0.1784
      6  OG1       -7.8670   -0.4490   10.3200 O.3    99  THR99      -0.2211
      7  CG2       -7.0130    1.7100    9.7520 C.3    99  THR99       0.0376
      8  N        -11.5110    1.4970    9.9690 N.am  100  ALA100     -0.1965
      9  CA       -12.8270    0.9170    9.8250 C.3   100  ALA100      0.1728
     10  C        -13.3860    1.1880    8.4510 C.2   100  ALA100      0.2616
     11  O        -13.0080    2.1630    7.7950 O.2   100  ALA100     -0.2715
     12  CB       -13.7560    1.4660   10.8930 C.3   100  ALA100      0.0334
     13  N        -14.2720    0.3000    8.0110 N.am  101  LEU101     -0.1977
     14  CA       -14.8830    0.4290    6.7020 C.3   101  LEU101      0.1596
     15  C        -16.2120    1.1830    6.7820 C.2   101  LEU101      0.2287
     16  O        -16.8830    1.3630    5.7760 O.2   101  LEU101     -0.2864
     17  CB       -15.0500   -0.9660    6.0760 C.3   101  LEU101      0.0297
     18  CG       -13.7880   -1.6050    5.4500 C.3   101  LEU101      0.0022
     19  CD1      -13.4020   -0.8120    4.2170 C.3   101  LEU101      0.0001
     20  CD2      -12.6170   -1.6310    6.3950 C.3   101  LEU101      0.0001
     21  N         -5.1530   -2.4050   12.8730 N.3   121  PHE121     -0.1227
     22  CA        -5.6800   -3.0630   11.6460 C.3   121  PHE121      0.1736
     23  C         -6.2920   -4.3930   12.0820 C.2   121  PHE121      0.2596
     24  O         -5.8010   -4.9970   13.0340 O.2   121  PHE121     -0.2718
     25  CB        -4.5400   -3.3080   10.6540 C.3   121  PHE121      0.0547
     26  CG        -3.9100   -2.0440   10.1590 C.ar  121  PHE121     -0.0202
     27  CD1       -2.8580   -1.4510   10.8590 C.ar  121  PHE121     -0.0042
     28  CD2       -4.3940   -1.4470    8.9950 C.ar  121  PHE121     -0.0042
     29  CE1       -2.2830   -0.2510   10.4050 C.ar  121  PHE121     -0.0003
     30  CE2       -3.8390   -0.2490    8.5220 C.ar  121  PHE121     -0.0003
     31  CZ        -2.7760    0.3540    9.2340 C.ar  121  PHE121     -0.0000
     32  N         -7.3580   -4.8160   11.4070 N.am  122  GLY122     -0.1942
     33  CA        -8.0570   -6.0300   11.8130 C.3   122  GLY122      0.2014
     34  C         -7.9170   -7.2200   10.9080 C.2   122  GLY122      0.2639
     35  O         -7.2520   -7.1830    9.8710 O.2   122  GLY122     -0.2714
     36  N         -8.5820   -8.2840   11.3170 N.am  123  ALA123     -0.1963
     37  CA        -8.5460   -9.5520   10.6050 C.3   123  ALA123      0.1728
     38  C         -8.9150   -9.4370    9.1320 C.2   123  ALA123      0.2616
     39  O         -9.8090   -8.7000    8.7590 O.2   123  ALA123     -0.2715
     40  CB        -9.4710  -10.5210   11.2880 C.3   123  ALA123      0.0334
     41  N         -8.2280  -10.1990    8.3030 N.am  124  GLU124     -0.1977
     42  CA        -8.4930  -10.1950    6.8760 C.3   124  GLU124      0.1602
     43  C         -9.9630  -10.4230    6.4950 C.2   124  GLU124      0.2287
     44  O        -10.5140   -9.7540    5.6410 O.2   124  GLU124     -0.2864
     45  CB        -7.6740  -11.2940    6.2030 C.3   124  GLU124      0.0415
     46  CG        -6.1760  -11.0150    6.1630 C.3   124  GLU124      0.1163
     47  CD        -5.4650  -11.5980    7.3850 C.2   124  GLU124      0.3649
     48  OE1       -4.2660  -11.9070    7.2530 O.co2 124  GLU124     -0.2457
     49  OE2       -6.1030  -11.7510    8.4650 O.co2 124  GLU124     -0.2457
     50  N        -12.3850   -7.7380    9.6000 N.3   127  GLY127     -0.1210
     51  CA       -12.0290   -6.4300   10.1250 C.3   127  GLY127      0.1956
     52  C        -11.8110   -6.3010   11.6240 C.2   127  GLY127      0.2611
     53  O        -11.8570   -7.2900   12.3660 O.2   127  GLY127     -0.2717
     54  N        -11.5850   -5.0660   12.0630 N.am  128  VAL128     -0.1979
     55  CA       -11.3660   -4.7610   13.4800 C.3   128  VAL128      0.1595
     56  C        -12.5940   -5.1380   14.3320 C.2   128  VAL128      0.2287
     57  O        -13.7440   -4.8900   13.9450 O.2   128  VAL128     -0.2864
     58  CB       -11.0490   -3.2690   13.6300 C.3   128  VAL128      0.0276
     59  CG1      -10.7630   -2.9390   15.0730 C.3   128  VAL128      0.0022
     60  CG2       -9.8320   -2.8980   12.7660 C.3   128  VAL128      0.0022
     61  N        -10.5860    5.5330   11.3710 N.3   140  ILE140     -0.1231
     62  CA       -10.1920    6.2360   10.1600 C.3   140  ILE140      0.1692
     63  C        -10.3970    5.3140    8.9870 C.2   140  ILE140      0.2592
     64  O        -10.3890    4.1090    9.1480 O.2   140  ILE140     -0.2718
     65  CB        -8.7150    6.7320   10.1830 C.3   140  ILE140      0.0266
     66  CG1       -7.7510    5.5680   10.3730 C.3   140  ILE140      0.0019
     67  CG2       -8.4910    7.7200   11.3460 C.3   140  ILE140      0.0020
     68  CD1       -6.3160    5.9540   10.2060 C.3   140  ILE140      0.0001
     69  N        -10.5840    5.8840    7.8070 N.am  141  LYS141     -0.1966
     70  CA       -10.8350    5.0700    6.6160 C.3   141  LYS141      0.1728
     71  C        -10.1220    5.5800    5.3720 C.2   141  LYS141      0.2616
     72  O         -9.8320    6.7690    5.2310 O.2   141  LYS141     -0.2715
     73  CB       -12.3460    4.9840    6.3460 C.3   141  LYS141      0.0311
     74  CG       -12.6860    4.1780    5.0890 C.3   141  LYS141      0.0038
     75  CD       -14.1880    4.1300    4.7960 C.3   141  LYS141      0.0206
     76  CE       -14.4120    3.2630    3.5590 C.3   141  LYS141      0.1093
     77  NZ       -15.8370    2.9330    3.3800 N.3   141  LYS141     -0.1314
     78  N         -9.8170    4.6620    4.4640 N.am  142  ILE142     -0.1977
     79  CA        -9.1530    5.0290    3.2150 C.3   142  ILE142      0.1596
     80  C        -10.2880    5.0590    2.1590 C.2   142  ILE142      0.2287
     81  O        -11.0200    4.1020    2.0240 O.2   142  ILE142     -0.2864
     82  CB        -8.0730    3.9730    2.7890 C.3   142  ILE142      0.0276
     83  CG1       -6.8890    4.0070    3.7630 C.3   142  ILE142      0.0022
     84  CG2       -7.5400    4.2930    1.3890 C.3   142  ILE142      0.0022
     85  CD1       -5.9950    2.7760    3.6530 C.3   142  ILE142      0.0001
     86  N        -12.6630    4.5160   -0.8430 N.3   144  MET144     -0.1245
     87  CA       -12.7750    3.4140   -1.7980 C.3   144  MET144      0.1570
     88  C        -13.7090    3.9490   -2.8760 C.2   144  MET144      0.2261
     89  O        -14.8910    4.1590   -2.6110 O.2   144  MET144     -0.2867
     90  CB       -13.3990    2.1990   -1.1230 C.3   144  MET144      0.0387
     91  CG       -12.6130    1.6530    0.0980 C.3   144  MET144      0.0595
     92  SD       -11.0800    0.9010   -0.3830 S.3   144  MET144     -0.1393
     93  CE       -10.0000    2.2100   -0.0510 C.3   144  MET144      0.0692
     94  N        -13.4520   -3.2180    0.5830 N.3   150  SER150     -0.1202
     95  CA       -12.2110   -3.0520    1.3440 C.3   150  SER150      0.2020
     96  C        -10.9600   -3.3980    0.5740 C.2   150  SER150      0.2618
     97  O        -11.0040   -4.0880   -0.4750 O.2   150  SER150     -0.2717
     98  CB       -12.2590   -3.9470    2.5740 C.3   150  SER150      0.2103
     99  OG       -12.3620   -5.2700    2.1070 O.3   150  SER150     -0.2182
    100  N         -9.8270   -2.9760    1.1290 N.am  151  LEU151     -0.1979
    101  CA        -8.5200   -3.2610    0.5480 C.3   151  LEU151      0.1596
    102  C         -7.8920   -4.4410    1.3070 C.2   151  LEU151      0.2287
    103  O         -8.3460   -4.8210    2.4020 O.2   151  LEU151     -0.2864
    104  CB        -7.5690   -2.0780    0.7440 C.3   151  LEU151      0.0297
    105  CG        -7.9050   -0.7690    0.0430 C.3   151  LEU151      0.0022
    106  CD1       -7.1030    0.3440    0.7110 C.3   151  LEU151      0.0001
    107  CD2       -7.5750   -0.9030   -1.4880 C.3   151  LEU151      0.0001
    108  N         -5.4290   -6.0790    3.8000 N.3   153  VAL153     -0.1245
    109  CA        -4.9750   -5.3970    5.0420 C.3   153  VAL153      0.1561
    110  C         -3.5540   -4.8220    4.9710 C.2   153  VAL153      0.2260
    111  O         -3.2780   -3.7140    5.4990 O.2   153  VAL153     -0.2867
    112  CB        -5.1490   -6.3420    6.2980 C.3   153  VAL153      0.0252
    113  CG1       -4.3100   -7.6140    6.1870 C.3   153  VAL153      0.0019
    114  CG2       -4.7500   -5.6220    7.5670 C.3   153  VAL153      0.0019
    115  N         -3.7650   -1.7320    3.0330 N.3   156  ALA156     -0.1245
    116  CA        -4.3110   -0.6100    3.7970 C.3   156  ALA156      0.1562
    117  C         -3.2340   -0.0850    4.7290 C.2   156  ALA156      0.2260
    118  O         -3.0810    1.1250    4.9170 O.2   156  ALA156     -0.2867
    119  CB        -5.5410   -1.0270    4.6040 C.3   156  ALA156      0.0290
    120  N         -1.7900    3.9930    4.6550 N.3   160  ILE160     -0.1245
    121  CA        -1.7510    4.8460    5.8400 C.3   160  ILE160      0.1561
    122  C         -0.3020    5.1360    6.3220 C.2   160  ILE160      0.2260
    123  O          0.0710    6.2820    6.5940 O.2   160  ILE160     -0.2867
    124  CB        -2.5920    4.1890    6.9740 C.3   160  ILE160      0.0252
    125  CG1       -4.0780    4.2330    6.5970 C.3   160  ILE160      0.0019
    126  CG2       -2.3940    4.9300    8.3040 C.3   160  ILE160      0.0019
    127  CD1       -4.9410    3.2760    7.3500 C.3   160  ILE160      0.0001
@<TRIPOS>BOND
     1    88    89    2
     2    88    87    1
     3    87    90    1
     4    87    86    1
     5   107   105    1
     6    90    91    1
     7    97    96    2
     8    92    93    1
     9    92    91    1
    10   105   106    1
    11   105   104    1
    12   101   104    1
    13   101   100    1
    14   101   102    1
    15    96   100   am
    16    96    95    1
    17    94    95    1
    18   102   103    2
    19    95    98    1
    20    84    82    1
    21    81    80    2
    22    99    98    1
    23    80    79    1
    24    82    79    1
    25    82    83    1
    26   115   116    1
    27    79    78    1
    28    77    76    1
    29    76    75    1
    30    85    83    1
    31   116   119    1
    32   116   117    1
    33   108   109    1
    34    19    18    1
    35    78    71   am
    36   120   121    1
    37   117   118    2
    38    75    74    1
    39   110   109    1
    40   110   111    2
    41   109   112    1
    42    74    73    1
    43    72    71    2
    44    71    70    1
    45    18    17    1
    46    18    20    1
    47    44    43    2
    48    16    15    2
    49   121   122    1
    50   121   124    1
    51    17    14    1
    52    46    45    1
    53    46    47    1
    54   113   112    1
    55    45    42    1
    56   112   114    1
    57   122   123    2
    58    73    70    1
    59    43    42    1
    60   125   124    1
    61   125   127    1
    62    70    69    1
    63    14    15    1
    64    14    13    1
    65    42    41    1
    66   124   126    1
    67    48    47   ar
    68    47    49   ar
    69    11    10    2
    70    69    63   am
    71    13    10   am
    72    41    38   am
    73    10     9    1
    74    30    28   ar
    75    30    31   ar
    76    39    38    2
    77    63    64    2
    78    63    62    1
    79    28    26   ar
    80    38    37    1
    81    31    29   ar
    82    50    51    1
    83     7     5    1
    84     9     8    1
    85     9    12    1
    86     5     6    1
    87     5     2    1
    88    35    34    2
    89     8     3   am
    90    51    52    1
    91    26    25    1
    92    26    27   ar
    93    62    65    1
    94    62    61    1
    95    65    66    1
    96    65    67    1
    97    68    66    1
    98    29    27   ar
    99    37    40    1
   100    37    36    1
   101     3     2    1
   102     3     4    2
   103    25    22    1
   104     2     1    1
   105    34    36   am
   106    34    33    1
   107    32    33    1
   108    32    23   am
   109    52    54   am
   110    52    53    2
   111    22    23    1
   112    22    21    1
   113    54    55    1
   114    23    24    2
   115    60    58    1
   116    55    58    1
   117    55    56    1
   118    58    59    1
   119    57    56    2
