@<TRIPOS>MOLECULE
tmp/1v30A00.pdb
 120 117 0 0 0
SMALL
GASTEIGER

@<TRIPOS>ATOM
      1  N         11.9250   24.9070   22.6810 N.3     5  ALA5       -0.1231
      2  CA        10.8810   23.9010   22.8470 C.3     5  ALA5        0.1694
      3  C         11.1000   23.2860   24.2220 C.2     5  ALA5        0.2592
      4  O         12.1150   22.6190   24.4630 O.2     5  ALA5       -0.2718
      5  CB        10.9990   22.8390   21.7670 C.3     5  ALA5        0.0304
      6  N         10.1530   23.5200   25.1270 N.am    6  VAL6       -0.1966
      7  CA        10.2660   23.0160   26.4880 C.3     6  VAL6        0.1727
      8  C          9.2360   21.9390   26.8060 C.2     6  VAL6        0.2616
      9  O          8.0540   22.0590   26.4660 O.2     6  VAL6       -0.2715
     10  CB        10.1840   24.1810   27.5090 C.3     6  VAL6        0.0290
     11  CG1       11.3460   25.1450   27.2670 C.3     6  VAL6        0.0023
     12  CG2        8.8500   24.9210   27.3860 C.3     6  VAL6        0.0023
     13  N          9.7040   20.8760   27.4500 N.am    7  TYR7       -0.1960
     14  CA         8.8700   19.7300   27.7880 C.3     7  TYR7        0.1771
     15  C          8.6480   19.5350   29.2770 C.2     7  TYR7        0.2620
     16  O          7.8030   18.7330   29.6710 O.2     7  TYR7       -0.2715
     17  CB         9.5240   18.4570   27.2500 C.3     7  TYR7        0.0574
     18  CG        10.9400   18.2580   27.7690 C.ar    7  TYR7       -0.0198
     19  CD1       12.0420   18.7400   27.0590 C.ar    7  TYR7       -0.0009
     20  CD2       11.1780   17.6010   28.9820 C.ar    7  TYR7       -0.0009
     21  CE1       13.3500   18.5640   27.5450 C.ar    7  TYR7        0.0417
     22  CE2       12.4780   17.4250   29.4740 C.ar    7  TYR7        0.0417
     23  CZ        13.5550   17.9040   28.7490 C.ar    7  TYR7        0.1957
     24  OH        14.8310   17.6740   29.2170 O.3     7  TYR7       -0.2866
     25  N          9.3950   20.2540   30.1030 N.am    8  GLY8       -0.1940
     26  CA         9.2640   20.0400   31.5290 C.3     8  GLY8        0.2014
     27  C          9.1810   21.2360   32.4420 C.2     8  GLY8        0.2640
     28  O          8.1700   21.9350   32.4840 O.2     8  GLY8       -0.2714
     29  N         10.2620   21.4630   33.1760 N.am    9  THR9       -0.1936
     30  CA        10.3580   22.5230   34.1670 C.3     9  THR9        0.2028
     31  C          9.9750   23.9330   33.7240 C.2     9  THR9        0.2642
     32  O          9.4770   24.7270   34.5320 O.2     9  THR9       -0.2714
     33  CB        11.7790   22.5130   34.7590 C.3     9  THR9        0.1808
     34  OG1       12.1490   21.1550   35.0380 O.3     9  THR9       -0.2208
     35  CG2       11.8350   23.3050   36.0410 C.3     9  THR9        0.0379
     36  N         10.1900   24.2400   32.4520 N.am   10  LEU10      -0.1977
     37  CA         9.8650   25.5590   31.9200 C.3    10  LEU10       0.1596
     38  C          8.4430   25.6860   31.3540 C.2    10  LEU10       0.2287
     39  O          8.0060   26.7880   31.0180 O.2    10  LEU10      -0.2864
     40  CB        10.8900   25.9570   30.8510 C.3    10  LEU10       0.0297
     41  CG        12.3070   26.2790   31.3500 C.3    10  LEU10       0.0022
     42  CD1       13.2800   26.2210   30.1850 C.3    10  LEU10       0.0001
     43  CD2       12.3300   27.6490   32.0170 C.3    10  LEU10       0.0001
     44  N          9.8450   26.4940   36.8300 N.3    16  LEU16      -0.1245
     45  CA        10.6400   27.6060   36.3230 C.3    16  LEU16       0.1561
     46  C          9.9640   28.4130   35.2280 C.2    16  LEU16       0.2260
     47  O         10.6200   29.1780   34.5200 O.2    16  LEU16      -0.2867
     48  CB        11.9960   27.0990   35.8200 C.3    16  LEU16       0.0270
     49  CG        12.9490   26.6090   36.9130 C.3    16  LEU16       0.0019
     50  CD1       14.2300   26.0870   36.2740 C.3    16  LEU16       0.0001
     51  CD2       13.2610   27.7490   37.8780 C.3    16  LEU16       0.0001
     52  N         12.4200   16.4340   35.2540 N.3    42  PRO42      -0.2116
     53  CA        12.0000   15.7980   34.0030 C.3    42  PRO42       0.1372
     54  C         13.2070   15.6330   33.0850 C.2    42  PRO42       0.2244
     55  O         14.0650   16.5160   33.0160 O.2    42  PRO42      -0.2868
     56  CB        10.9770   16.7820   33.4450 C.3    42  PRO42       0.0268
     57  CG        11.5490   18.1020   33.8540 C.3    42  PRO42       0.0207
     58  CD        12.0580   17.8660   35.2710 C.3    42  PRO42       0.0892
     59  N         18.2730   31.8460   31.1700 N.3    66  ILE66      -0.1231
     60  CA        17.8170   30.4780   31.3680 C.3    66  ILE66       0.1692
     61  C         18.9740   29.4940   31.2500 C.2    66  ILE66       0.2592
     62  O         19.1130   28.5820   32.0650 O.2    66  ILE66      -0.2718
     63  CB        16.7410   30.0990   30.3290 C.3    66  ILE66       0.0266
     64  CG1       15.4820   30.9380   30.5600 C.3    66  ILE66       0.0019
     65  CG2       16.4330   28.6050   30.4120 C.3    66  ILE66       0.0020
     66  CD1       14.4000   30.7260   29.5160 C.3    66  ILE66       0.0001
     67  N         19.8120   29.6940   30.2380 N.am   67  ASN67      -0.1974
     68  CA        20.9380   28.8020   29.9950 C.3    67  ASN67       0.1688
     69  C         22.0550   28.9530   31.0290 C.2    67  ASN67       0.2292
     70  O         23.0980   28.3060   30.9240 O.2    67  ASN67      -0.2864
     71  CB        21.4720   29.0270   28.5750 C.3    67  ASN67       0.1181
     72  CG        22.0850   27.7740   27.9750 C.2    67  ASN67       0.2629
     73  OD1       21.6570   26.6550   28.2700 O.2    67  ASN67      -0.2716
     74  ND2       23.0780   27.9550   27.1130 N.am   67  ASN67      -0.0877
     75  N         20.9850   29.0720   34.4420 N.3    69  ILE69      -0.1245
     76  CA        20.3820   28.4440   35.6190 C.3    69  ILE69       0.1561
     77  C         21.1730   27.2000   36.0300 C.2    69  ILE69       0.2260
     78  O         21.4900   26.3460   35.2010 O.2    69  ILE69      -0.2867
     79  CB        18.9030   28.0560   35.3470 C.3    69  ILE69       0.0252
     80  CG1       18.1090   29.3010   34.9340 C.3    69  ILE69       0.0019
     81  CG2       18.2810   27.4420   36.5990 C.3    69  ILE69       0.0019
     82  CD1       16.6660   29.0310   34.5550 C.3    69  ILE69       0.0001
     83  N         20.3640   24.4820   37.5860 N.3    71  ILE71      -0.1231
     84  CA        19.7100   23.2100   37.3090 C.3    71  ILE71       0.1692
     85  C         19.9220   22.7240   35.8730 C.2    71  ILE71       0.2592
     86  O         19.6860   21.5570   35.5600 O.2    71  ILE71      -0.2718
     87  CB        18.1860   23.2970   37.6240 C.3    71  ILE71       0.0266
     88  CG1       17.6470   21.9120   37.9780 C.3    71  ILE71       0.0019
     89  CG2       17.4280   23.8840   36.4470 C.3    71  ILE71       0.0020
     90  CD1       18.1410   21.3940   39.3140 C.3    71  ILE71       0.0001
     91  N         20.3770   23.6200   35.0020 N.am   72  GLY72      -0.1957
     92  CA        20.6220   23.2440   33.6220 C.3    72  GLY72       0.1869
     93  C         21.9230   22.4760   33.4400 C.2    72  GLY72       0.2309
     94  O         22.2320   22.0270   32.3350 O.2    72  GLY72      -0.2863
     95  N         21.8460   19.1460   31.5670 N.3    75  TYR75      -0.1241
     96  CA        21.2320   19.1530   30.2440 C.3    75  TYR75       0.1605
     97  C         22.1270   19.8520   29.2240 C.2    75  TYR75       0.2264
     98  O         22.8620   20.7730   29.5640 O.2    75  TYR75      -0.2867
     99  CB        19.8830   19.8870   30.2780 C.3    75  TYR75       0.0534
    100  CG        18.8810   19.3860   31.2980 C.ar   75  TYR75      -0.0201
    101  CD1       18.9530   19.7860   32.6330 C.ar   75  TYR75      -0.0009
    102  CD2       17.8320   18.5490   30.9150 C.ar   75  TYR75      -0.0009
    103  CE1       17.9930   19.3710   33.5650 C.ar   75  TYR75       0.0417
    104  CE2       16.8700   18.1250   31.8390 C.ar   75  TYR75       0.0417
    105  CZ        16.9560   18.5430   33.1570 C.ar   75  TYR75       0.1957
    106  OH        15.9860   18.1500   34.0580 O.3    75  TYR75      -0.2866
    107  N         16.5730   21.4730   25.6980 N.3    90  TRP90      -0.1241
    108  CA        17.5640   21.0480   26.6730 C.3    90  TRP90       0.1605
    109  C         17.4180   19.5580   26.9030 C.2    90  TRP90       0.2264
    110  O         16.5080   19.1070   27.5980 O.2    90  TRP90      -0.2867
    111  CB        17.3800   21.8120   27.9810 C.3    90  TRP90       0.0550
    112  CG        17.9090   23.2140   27.9190 C.ar   90  TRP90       0.0003
    113  CD1       19.1950   23.6150   28.1470 C.ar   90  TRP90       0.0946
    114  CD2       17.1720   24.4010   27.5930 C.ar   90  TRP90       0.0152
    115  NE1       19.3030   24.9770   27.9880 N.ar   90  TRP90      -0.2442
    116  CE2       18.0760   25.4850   27.6460 C.ar   90  TRP90       0.0810
    117  CE3       15.8330   24.6550   27.2600 C.ar   90  TRP90       0.0012
    118  CZ2       17.6860   26.8010   27.3810 C.ar   90  TRP90       0.0191
    119  CZ3       15.4450   25.9660   26.9970 C.ar   90  TRP90       0.0001
    120  CH2       16.3680   27.0210   27.0600 C.ar   90  TRP90       0.0015
@<TRIPOS>BOND
     1     5     2    1
     2     1     2    1
     3     2     3    1
     4     3     4    2
     5     3     6   am
     6     6     7    1
     7   107   108    1
     8     9     8    2
     9     7     8    1
    10     7    10    1
    11   108   109    1
    12   108   111    1
    13     8    13   am
    14   109   110    2
    15   119   120   ar
    16   119   117   ar
    17    19    21   ar
    18    19    18   ar
    19   120   118   ar
    20    74    72   am
    21    17    18    1
    22    17    14    1
    23   117   114   ar
    24    11    10    1
    25   118   116   ar
    26    12    10    1
    27    13    14    1
    28    21    23   ar
    29   114   116   ar
    30   114   112   ar
    31   116   115   ar
    32    18    20   ar
    33    14    15    1
    34   112   111    1
    35   112   113   ar
    36    72    73    2
    37    72    71    1
    38   115   113   ar
    39    71    68    1
    40    23    24    1
    41    23    22   ar
    42    20    22   ar
    43    97    98    2
    44    97    96    1
    45    15    16    2
    46    15    25   am
    47    66    64    1
    48    68    67    1
    49    68    69    1
    50    25    26    1
    51    42    41    1
    52    67    61   am
    53    96    99    1
    54    96    95    1
    55    99   100    1
    56    63    65    1
    57    63    64    1
    58    63    60    1
    59    40    41    1
    60    40    37    1
    61   102   100   ar
    62   102   104   ar
    63    70    69    2
    64    39    38    2
    65    59    60    1
    66    61    60    1
    67    61    62    2
    68   100   101   ar
    69    41    43    1
    70    38    37    1
    71    26    27    1
    72   104   105   ar
    73    37    36    1
    74    94    93    2
    75    27    28    2
    76    27    29   am
    77    36    31   am
    78   101   103   ar
    79    55    54    2
    80    54    53    1
    81   105   103   ar
    82   105   106    1
    83    29    30    1
    84    93    92    1
    85    56    57    1
    86    56    53    1
    87    92    91    1
    88    31    30    1
    89    31    32    2
    90    57    58    1
    91    53    52    1
    92    30    33    1
    93    75    76    1
    94    47    46    2
    95    82    80    1
    96    33    34    1
    97    33    35    1
    98    80    79    1
    99    91    85   am
   100    78    77    2
   101    46    45    1
   102    52    58    1
   103    79    76    1
   104    79    81    1
   105    86    85    2
   106    76    77    1
   107    48    45    1
   108    48    49    1
   109    85    84    1
   110    50    49    1
   111    45    44    1
   112    89    87    1
   113    49    51    1
   114    84    83    1
   115    84    87    1
   116    87    88    1
   117    88    90    1
