@<TRIPOS>MOLECULE
tmp/1v39A01.pdb
 123 119 0 0 0
SMALL
GASTEIGER

@<TRIPOS>ATOM
      1  N         23.3710   19.3740   20.7900 N.3    22  TYR22      -0.1241
      2  CA        22.6660   18.3680   21.5650 C.3    22  TYR22       0.1605
      3  C         23.6130   17.4160   22.3090 C.2    22  TYR22       0.2264
      4  O         24.4520   16.7690   21.6940 O.2    22  TYR22      -0.2867
      5  CB        21.7560   17.5600   20.6440 C.3    22  TYR22       0.0534
      6  CG        21.0950   16.4130   21.3570 C.ar   22  TYR22      -0.0201
      7  CD1       20.1080   16.6420   22.3320 C.ar   22  TYR22      -0.0009
      8  CD2       21.5020   15.1030   21.1200 C.ar   22  TYR22      -0.0009
      9  CE1       19.5510   15.5950   23.0530 C.ar   22  TYR22       0.0417
     10  CE2       20.9540   14.0410   21.8350 C.ar   22  TYR22       0.0417
     11  CZ        19.9800   14.2940   22.8030 C.ar   22  TYR22       0.1957
     12  OH        19.4330   13.2480   23.5090 O.3    22  TYR22      -0.2866
     13  N         19.4950   12.8450   27.8590 N.3    27  ALA27      -0.1245
     14  CA        18.4640   11.8060   27.8550 C.3    27  ALA27       0.1562
     15  C         18.3120   11.0570   29.1830 C.2    27  ALA27       0.2260
     16  O         17.3000   10.4070   29.4030 O.2    27  ALA27      -0.2867
     17  CB        18.7290   10.8220   26.7480 C.3    27  ALA27       0.0290
     18  N          9.9880    5.5790   19.7440 N.3   142  PRO142     -0.2116
     19  CA         9.4250    5.5820   18.3540 C.3   142  PRO142      0.1372
     20  C         10.5520    5.7970   17.3360 C.2   142  PRO142      0.2244
     21  O         11.4500    6.6160   17.5650 O.2   142  PRO142     -0.2868
     22  CB         8.4570    6.7640   18.2510 C.3   142  PRO142      0.0268
     23  CG         8.2670    7.1690   19.7290 C.3   142  PRO142      0.0207
     24  CD         9.5950    6.8320   20.4240 C.3   142  PRO142      0.0892
     25  N          7.1430   16.5780   16.1890 N.3   171  ARG171     -0.1245
     26  CA         8.5060   16.4310   16.6920 C.3   171  ARG171      0.1563
     27  C          9.3380   15.9670   15.5010 C.2   171  ARG171      0.2260
     28  O          9.1150   14.9070   14.9420 O.2   171  ARG171     -0.2867
     29  CB         8.6080   15.4250   17.8450 C.3   171  ARG171      0.0307
     30  CG         9.8980   15.5820   18.6760 C.3   171  ARG171      0.0489
     31  CD        10.5490   14.2590   18.9730 C.3   171  ARG171      0.2205
     32  NE        11.2240   13.7370   17.8000 N.pl3 171  ARG171     -0.0865
     33  CZ        11.5850   12.4670   17.6040 C.cat 171  ARG171      0.5346
     34  NH1       11.3490   11.5130   18.4930 N.pl3 171  ARG171      0.1354
     35  NH2       12.2450   12.1640   16.5020 N.pl3 171  ARG171      0.1354
     36  N         15.2000   12.9370   14.4780 N.3   174  PHE174     -0.1241
     37  CA        16.5570   13.3700   14.7900 C.3   174  PHE174      0.1605
     38  C         17.4600   13.2640   13.5480 C.2   174  PHE174      0.2264
     39  O         17.3660   12.2940   12.7930 O.2   174  PHE174     -0.2867
     40  CB        17.0520   12.5810   15.9870 C.3   174  PHE174      0.0534
     41  CG        16.1620   12.7360   17.1720 C.ar  174  PHE174     -0.0203
     42  CD1       15.6640   14.0010   17.5110 C.ar  174  PHE174     -0.0042
     43  CD2       15.7560   11.6390   17.9140 C.ar  174  PHE174     -0.0042
     44  CE1       14.7680   14.1720   18.5680 C.ar  174  PHE174     -0.0003
     45  CE2       14.8500   11.7960   18.9850 C.ar  174  PHE174     -0.0003
     46  CZ        14.3620   13.0670   19.3050 C.ar  174  PHE174     -0.0000
     47  N         20.4560   12.3640   13.0490 N.3   176  ASP176     -0.1225
     48  CA        21.2010   11.1080   12.9900 C.3   176  ASP176      0.1805
     49  C         20.3220    9.8650   12.7160 C.2   176  ASP176      0.2597
     50  O         20.8120    8.7280   12.7070 O.2   176  ASP176     -0.2718
     51  CB        22.0560   10.9150   14.2610 C.3   176  ASP176      0.1424
     52  CG        21.2230   10.6740   15.5250 C.2   176  ASP176      0.3668
     53  OD1       20.0020   10.9500   15.5170 O.co2 176  ASP176     -0.2456
     54  OD2       21.8020   10.2050   16.5360 O.co2 176  ASP176     -0.2456
     55  N         19.0310   10.0860   12.4870 N.am  177  GLN177     -0.1979
     56  CA        18.0930    9.0090   12.2100 C.3   177  GLN177      0.1601
     57  C         17.2480    9.4300   11.0320 C.2   177  GLN177      0.2287
     58  O         16.0960    9.0150   10.8950 O.2   177  GLN177     -0.2864
     59  CB        17.1950    8.7600   13.4170 C.3   177  GLN177      0.0394
     60  CG        17.9290    8.2410   14.6300 C.3   177  GLN177      0.0908
     61  CD        17.0710    8.2360   15.8650 C.2   177  GLN177      0.2608
     62  OE1       17.5020    8.6790   16.9340 O.2   177  GLN177     -0.2717
     63  NE2       15.8410    7.7490   15.7280 N.am  177  GLN177     -0.0878
     64  N          8.3540   17.4680   28.4970 N.3   196  PRO196     -0.2116
     65  CA         9.4370   16.8230   29.2470 C.3   196  PRO196      0.1372
     66  C         10.6900   17.7040   29.1440 C.2   196  PRO196      0.2244
     67  O         10.8620   18.4190   28.1660 O.2   196  PRO196     -0.2868
     68  CB         9.6070   15.4970   28.5200 C.3   196  PRO196      0.0268
     69  CG         8.2220   15.2080   28.0100 C.3   196  PRO196      0.0207
     70  CD         7.7350   16.5400   27.5300 C.3   196  PRO196      0.0892
     71  N         13.7380   17.6380   28.1390 N.3   198  TYR198     -0.1227
     72  CA        14.4860   17.7410   26.8930 C.3   198  TYR198      0.1736
     73  C         13.7250   17.3530   25.6480 C.2   198  TYR198      0.2596
     74  O         14.3330   17.0120   24.6230 O.2   198  TYR198     -0.2718
     75  CB        15.7760   16.9240   26.9710 C.3   198  TYR198      0.0548
     76  CG        16.7290   17.5070   27.9390 C.ar  198  TYR198     -0.0200
     77  CD1       17.4870   18.6240   27.5950 C.ar  198  TYR198     -0.0009
     78  CD2       16.7590   17.0610   29.2440 C.ar  198  TYR198     -0.0009
     79  CE1       18.2620   19.2490   28.5190 C.ar  198  TYR198      0.0417
     80  CE2       17.5330   17.6940   30.1780 C.ar  198  TYR198      0.0417
     81  CZ        18.2630   18.8050   29.8100 C.ar  198  TYR198      0.1957
     82  OH        19.0060   19.4780   30.7400 O.3   198  TYR198     -0.2866
     83  N         12.4010   17.4060   25.7220 N.am  199  SER199     -0.1938
     84  CA        11.5690   17.0790   24.5790 C.3   199  SER199      0.2055
     85  C         11.7360   18.1130   23.4430 C.2   199  SER199      0.2643
     86  O         11.9140   19.3220   23.6960 O.2   199  SER199     -0.2714
     87  CB        10.1080   16.9960   25.0270 C.3   199  SER199      0.2130
     88  OG         9.2030   16.8340   23.9460 O.3   199  SER199     -0.2179
     89  N         11.7130   17.6360   22.1970 N.am  200  ALA200     -0.1963
     90  CA        11.8140   18.5260   21.0490 C.3   200  ALA200      0.1728
     91  C         10.4370   18.6440   20.4140 C.2   200  ALA200      0.2616
     92  O         10.3150   19.1140   19.2840 O.2   200  ALA200     -0.2715
     93  CB        12.8240   17.9890   20.0380 C.3   200  ALA200      0.0334
     94  N          9.3930   18.2200   21.1450 N.am  201  GLU201     -0.1977
     95  CA         7.9950   18.2530   20.6490 C.3   201  GLU201      0.1602
     96  C          7.2990   19.6120   20.7870 C.2   201  GLU201      0.2287
     97  O          7.4530   20.3210   21.7910 O.2   201  GLU201     -0.2864
     98  CB         7.1470   17.1740   21.3580 C.3   201  GLU201      0.0415
     99  CG         5.7360   16.9980   20.8080 C.3   201  GLU201      0.1163
    100  CD         4.8260   16.2800   21.7760 C.2   201  GLU201      0.3649
    101  OE1        4.2850   16.9250   22.6930 O.co2 201  GLU201     -0.2457
    102  OE2        4.6570   15.0650   21.6230 O.co2 201  GLU201     -0.2457
    103  N         16.8390   20.2530   16.4280 N.3   227  GLU227     -0.1245
    104  CA        17.6200   19.6620   17.4970 C.3   227  GLU227      0.1567
    105  C         18.4090   20.6750   18.3040 C.2   227  GLU227      0.2260
    106  O         18.4420   20.6160   19.5240 O.2   227  GLU227     -0.2867
    107  CB        18.5730   18.6460   16.8780 C.3   227  GLU227      0.0388
    108  CG        19.6600   18.1600   17.7850 C.3   227  GLU227      0.1160
    109  CD        20.5050   17.0910   17.1240 C.2   227  GLU227      0.3649
    110  OE1       20.0290   15.9350   17.0160 O.co2 227  GLU227     -0.2457
    111  OE2       21.6360   17.4210   16.7000 O.co2 227  GLU227     -0.2457
    112  N         17.3240   22.1340   21.8530 N.3   231  TYR231     -0.1241
    113  CA        18.2810   21.7920   22.8820 C.3   231  TYR231      0.1605
    114  C         18.6850   23.0450   23.6660 C.2   231  TYR231      0.2264
    115  O         18.8730   23.0080   24.8890 O.2   231  TYR231     -0.2867
    116  CB        19.5170   21.1060   22.2950 C.3   231  TYR231      0.0534
    117  CG        20.3470   20.5450   23.3940 C.ar  231  TYR231     -0.0201
    118  CD1       19.8310   19.5450   24.2140 C.ar  231  TYR231     -0.0009
    119  CD2       21.5810   21.1020   23.7310 C.ar  231  TYR231     -0.0009
    120  CE1       20.5040   19.1260   25.3580 C.ar  231  TYR231      0.0417
    121  CE2       22.2690   20.6870   24.8830 C.ar  231  TYR231      0.0417
    122  CZ        21.7100   19.6990   25.6890 C.ar  231  TYR231      0.1957
    123  OH        22.3140   19.3020   26.8500 O.3   231  TYR231     -0.2866
@<TRIPOS>BOND
     1    58    57    2
     2    57    56    1
     3    56    55    1
     4    56    59    1
     5    55    49   am
     6    50    49    2
     7    49    48    1
     8    39    38    2
     9    48    47    1
    10    48    51    1
    11    59    60    1
    12    38    37    1
    13    51    52    1
    14    36    37    1
    15    60    61    1
    16    37    40    1
    17    28    27    2
    18    27    26    1
    19    53    52   ar
    20    52    54   ar
    21    63    61   am
    22    61    62    2
    23    40    41    1
    24    25    26    1
    25   103   104    1
    26    35    33    1
    27    26    29    1
    28   111   109   ar
    29   107   104    1
    30   107   108    1
    31   110   109   ar
    32   109   108    1
    33    41    42   ar
    34    41    43   ar
    35    20    21    2
    36    20    19    1
    37   104   105    1
    38    42    44   ar
    39    33    32    2
    40    33    34    1
    41    32    31    1
    42    29    30    1
    43    43    45   ar
    44    22    19    1
    45    22    23    1
    46   105   106    2
    47    19    18    1
    48    44    46   ar
    49    30    31    1
    50    45    46   ar
    51    92    91    2
    52    23    24    1
    53    18    24    1
    54    93    90    1
    55    91    90    1
    56    91    94   am
    57     5     6    1
    58     5     2    1
    59    95    96    1
    60    95    94    1
    61    95    98    1
    62    96    97    2
    63     1     2    1
    64    99    98    1
    65    99   100    1
    66    90    89    1
    67     8     6   ar
    68     8    10   ar
    69     6     7   ar
    70     2     3    1
    71   102   100   ar
    72     4     3    2
    73   100   101   ar
    74    10    11   ar
    75   112   113    1
    76    89    85   am
    77   116   113    1
    78   116   117    1
    79     7     9   ar
    80    11     9   ar
    81    11    12    1
    82   113   114    1
    83   117   119   ar
    84   117   118   ar
    85    85    86    2
    86    85    84    1
    87   114   115    2
    88   119   121   ar
    89    88    87    1
    90   118   120   ar
    91    84    87    1
    92    84    83    1
    93    74    73    2
    94   121   122   ar
    95   120   122   ar
    96    73    83   am
    97    73    72    1
    98   122   123    1
    99    17    14    1
   100    72    75    1
   101    72    71    1
   102    75    76    1
   103    70    69    1
   104    70    64    1
   105    77    76   ar
   106    77    79   ar
   107    14    13    1
   108    14    15    1
   109    76    78   ar
   110    69    68    1
   111    67    66    2
   112    64    65    1
   113    79    81   ar
   114    68    65    1
   115    66    65    1
   116    15    16    2
   117    78    80   ar
   118    81    80   ar
   119    81    82    1
