@<TRIPOS>MOLECULE
tmp/1v3mB00.pdb
 239 239 0 0 0
SMALL
GASTEIGER

@<TRIPOS>ATOM
      1  N          5.1180   -9.5070  -30.4340 N.3    89  TYR89      -0.1241
      2  CA         6.5300   -9.7370  -30.3000 C.3    89  TYR89       0.1605
      3  C          6.6160  -10.9430  -29.4060 C.2    89  TYR89       0.2264
      4  O          6.2460  -10.9190  -28.2270 O.2    89  TYR89      -0.2867
      5  CB         7.2040   -8.6050  -29.6340 C.3    89  TYR89       0.0534
      6  CG         7.2670   -7.3350  -30.4430 C.ar   89  TYR89      -0.0201
      7  CD1        8.0730   -7.2760  -31.5790 C.ar   89  TYR89      -0.0009
      8  CD2        6.5800   -6.2070  -29.9920 C.ar   89  TYR89      -0.0009
      9  CE1        8.2070   -6.0670  -32.2620 C.ar   89  TYR89       0.0417
     10  CE2        6.7050   -4.9960  -30.6760 C.ar   89  TYR89       0.0417
     11  CZ         7.5260   -4.9400  -31.8040 C.ar   89  TYR89       0.1957
     12  OH         7.7180   -3.7390  -32.4360 O.3    89  TYR89      -0.2866
     13  N          1.2260   -6.1840  -28.4970 N.3    94  ASN94      -0.1240
     14  CA         1.6830   -4.8670  -28.1350 C.3    94  ASN94       0.1653
     15  C          0.8820   -3.9100  -28.9380 C.2    94  ASN94       0.2266
     16  O          0.6220   -4.2140  -30.0900 O.2    94  ASN94      -0.2867
     17  CB         3.1310   -4.6620  -28.5040 C.3    94  ASN94       0.1155
     18  CG         4.0690   -5.0600  -27.3860 C.2    94  ASN94       0.2627
     19  OD1        4.5840   -4.1980  -26.6690 O.2    94  ASN94      -0.2716
     20  ND2        4.3020   -6.3490  -27.1840 N.am   94  ASN94      -0.0877
     21  N         -0.3920    2.1160  -27.0740 N.3    97  TYR97      -0.1227
     22  CA        -1.0390    2.7920  -25.9500 C.3    97  TYR97       0.1736
     23  C         -0.2980    3.9900  -25.3760 C.2    97  TYR97       0.2595
     24  O         -0.8860    4.8800  -24.7670 O.2    97  TYR97      -0.2718
     25  CB        -1.2850    1.8170  -24.7780 C.3    97  TYR97       0.0548
     26  CG        -0.0170    1.4490  -24.0220 C.ar   97  TYR97      -0.0200
     27  CD1        0.3680    2.1930  -22.8960 C.ar   97  TYR97      -0.0009
     28  CD2        0.7870    0.4260  -24.5130 C.ar   97  TYR97      -0.0009
     29  CE1        1.5730    1.9220  -22.2710 C.ar   97  TYR97       0.0417
     30  CE2        1.9920    0.1490  -23.8760 C.ar   97  TYR97       0.0417
     31  CZ         2.3700    0.9010  -22.7720 C.ar   97  TYR97       0.1957
     32  OH         3.5690    0.6320  -22.1810 O.3    97  TYR97      -0.2866
     33  N          1.0340    3.8650  -25.4760 N.am   98  HIS98      -0.1975
     34  CA         2.0180    4.8200  -24.9930 C.3    98  HIS98       0.1656
     35  C          2.1660    6.0410  -25.8790 C.2    98  HIS98       0.2291
     36  O          2.9040    6.9600  -25.5150 O.2    98  HIS98      -0.2864
     37  CB         3.3800    4.1670  -24.8760 C.3    98  HIS98       0.0771
     38  CG         3.7630    3.3140  -26.0790 C.ar   98  HIS98       0.0820
     39  ND1        3.9260    3.5830  -27.3780 N.ar   98  HIS98      -0.2267
     40  CD2        3.9710    1.9730  -25.9300 C.ar   98  HIS98       0.1154
     41  CE1        4.2200    2.4540  -27.9910 C.ar   98  HIS98       0.1986
     42  NE2        4.2440    1.4900  -27.1040 N.ar   98  HIS98      -0.2212
     43  N          3.9790    6.4740  -28.5690 N.3   100  TYR100     -0.1227
     44  CA         5.2520    6.6100  -29.2800 C.3   100  TYR100      0.1736
     45  C          5.3570    6.1060  -30.7220 C.2   100  TYR100      0.2595
     46  O          6.4270    6.2560  -31.3230 O.2   100  TYR100     -0.2718
     47  CB         6.3500    5.9470  -28.4140 C.3   100  TYR100      0.0548
     48  CG         6.4830    6.5170  -27.0110 C.ar  100  TYR100     -0.0200
     49  CD1        6.7100    7.8810  -26.7960 C.ar  100  TYR100     -0.0009
     50  CD2        6.4250    5.6600  -25.9110 C.ar  100  TYR100     -0.0009
     51  CE1        6.8730    8.3710  -25.4950 C.ar  100  TYR100      0.0417
     52  CE2        6.5850    6.1350  -24.6100 C.ar  100  TYR100      0.0417
     53  CZ         6.7870    7.5020  -24.3980 C.ar  100  TYR100      0.1957
     54  OH         6.9700    7.9700  -23.1050 O.3   100  TYR100     -0.2866
     55  N          4.3090    5.5240  -31.3100 N.am  101  TRP101     -0.1976
     56  CA         4.4160    4.9120  -32.6210 C.3   101  TRP101      0.1640
     57  C          3.5480    5.7140  -33.5580 C.2   101  TRP101      0.2290
     58  O          2.4570    5.2900  -33.9550 O.2   101  TRP101     -0.2864
     59  CB         3.9570    3.4550  -32.5270 C.3   101  TRP101      0.0576
     60  CG         4.8140    2.4850  -31.7350 C.ar  101  TRP101      0.0006
     61  CD1        6.0960    2.7720  -31.3260 C.ar  101  TRP101      0.0946
     62  CD2        4.4140    1.2400  -31.3320 C.ar  101  TRP101      0.0152
     63  NE1        6.5070    1.7100  -30.6560 N.ar  101  TRP101     -0.2442
     64  CE2        5.5450    0.7850  -30.6380 C.ar  101  TRP101      0.0810
     65  CE3        3.2970    0.4270  -31.4370 C.ar  101  TRP101      0.0012
     66  CZ2        5.5770   -0.4730  -30.0430 C.ar  101  TRP101      0.0191
     67  CZ3        3.3210   -0.8360  -30.8450 C.ar  101  TRP101      0.0001
     68  CH2        4.4500   -1.2850  -30.1530 C.ar  101  TRP101      0.0015
     69  N         10.9870    8.9960  -35.2730 N.3   140  HIS140     -0.1241
     70  CA        10.5670    7.7720  -35.9130 C.3   140  HIS140      0.1621
     71  C          9.0630    7.7900  -36.0580 C.2   140  HIS140      0.2264
     72  O          8.4100    8.6350  -35.4290 O.2   140  HIS140     -0.2867
     73  CB        11.0120    6.5920  -35.0280 C.3   140  HIS140      0.0745
     74  CG        10.4960    6.6290  -33.5740 C.ar  140  HIS140      0.0817
     75  ND1       11.1700    6.9410  -32.4840 N.ar  140  HIS140     -0.2268
     76  CD2        9.2150    6.3640  -33.1790 C.ar  140  HIS140      0.1154
     77  CE1       10.3530    6.8950  -31.4730 C.ar  140  HIS140      0.1986
     78  NE2        9.1850    6.5460  -31.9060 N.ar  140  HIS140     -0.2212
     79  N         23.9940    1.1900  -30.5930 N.3   183  PHE183     -0.1241
     80  CA        24.2860    2.2130  -29.5970 C.3   183  PHE183      0.1605
     81  C         25.7760    2.3290  -29.3050 C.2   183  PHE183      0.2264
     82  O         26.1700    2.8100  -28.2390 O.2   183  PHE183     -0.2867
     83  CB        23.5710    1.9390  -28.2630 C.3   183  PHE183      0.0534
     84  CG        22.0790    1.8120  -28.3760 C.ar  183  PHE183     -0.0203
     85  CD1       21.5000    0.5450  -28.3380 C.ar  183  PHE183     -0.0042
     86  CD2       21.2930    2.9530  -28.5160 C.ar  183  PHE183     -0.0042
     87  CE1       20.1190    0.4200  -28.4420 C.ar  183  PHE183     -0.0003
     88  CE2       19.9100    2.8220  -28.6180 C.ar  183  PHE183     -0.0003
     89  CZ        19.3280    1.5590  -28.5800 C.ar  183  PHE183     -0.0000
     90  N         16.2930    2.9110  -34.0770 N.3   194  LEU194     -0.1231
     91  CA        16.1750    2.6310  -32.6630 C.3   194  LEU194      0.1693
     92  C         15.3150    1.3680  -32.6040 C.2   194  LEU194      0.2592
     93  O         14.1080    1.4210  -32.8570 O.2   194  LEU194     -0.2718
     94  CB        15.4440    3.7650  -31.9690 C.3   194  LEU194      0.0284
     95  CG        16.0930    4.6110  -30.9080 C.3   194  LEU194      0.0019
     96  CD1       15.0300    5.5070  -30.2830 C.3   194  LEU194      0.0001
     97  CD2       16.7110    3.7190  -29.8480 C.3   194  LEU194      0.0001
     98  N         15.8700    0.2100  -32.2660 N.am  195  TYR195     -0.1962
     99  CA        15.1770   -1.0820  -32.2080 C.3   195  TYR195      0.1771
    100  C         14.5520   -1.3350  -33.5940 C.2   195  TYR195      0.2620
    101  O         15.3040   -1.3800  -34.5850 O.2   195  TYR195     -0.2715
    102  CB        14.1190   -1.0550  -31.0200 C.3   195  TYR195      0.0574
    103  CG        14.6740   -0.5690  -29.6640 C.ar  195  TYR195     -0.0198
    104  CD1       15.7720   -1.1930  -29.0310 C.ar  195  TYR195     -0.0009
    105  CD2       14.1040    0.5640  -29.0680 C.ar  195  TYR195     -0.0009
    106  CE1       16.2780   -0.6820  -27.8210 C.ar  195  TYR195      0.0417
    107  CE2       14.6040    1.0790  -27.8630 C.ar  195  TYR195      0.0417
    108  CZ        15.6960    0.4600  -27.2430 C.ar  195  TYR195      0.1957
    109  OH        16.1850    0.9870  -26.0500 O.3   195  TYR195     -0.2866
    110  N         13.2290   -1.4410  -33.7570 N.am  196  ASP196     -0.1957
    111  CA        12.6160   -1.6480  -35.0630 C.3   196  ASP196      0.1840
    112  C         11.7880   -0.4530  -35.5350 C.2   196  ASP196      0.2621
    113  O         10.9240   -0.5800  -36.4010 O.2   196  ASP196     -0.2715
    114  CB        11.7320   -2.8860  -34.9930 C.3   196  ASP196      0.1450
    115  CG        10.5400   -2.8060  -34.0450 C.2   196  ASP196      0.3671
    116  OD1        9.6210   -3.5890  -34.2680 O.co2 196  ASP196     -0.2456
    117  OD2       10.5180   -1.9960  -33.1120 O.co2 196  ASP196     -0.2456
    118  N         11.9850    0.7300  -34.9420 N.am  197  LEU197     -0.1977
    119  CA        11.2180    1.9040  -35.2990 C.3   197  LEU197      0.1596
    120  C         11.8090    2.5050  -36.5580 C.2   197  LEU197      0.2287
    121  O         13.0050    2.8010  -36.6350 O.2   197  LEU197     -0.2864
    122  CB        11.2630    2.8690  -34.1090 C.3   197  LEU197      0.0297
    123  CG        10.7160    2.2860  -32.8160 C.3   197  LEU197      0.0022
    124  CD1       10.9670    3.1580  -31.6160 C.3   197  LEU197      0.0001
    125  CD2        9.2680    2.1230  -33.0080 C.3   197  LEU197      0.0001
    126  N          7.8110   17.8300  -24.6150 N.3   227  ARG227     -0.1245
    127  CA         8.8580   16.9410  -24.1770 C.3   227  ARG227      0.1563
    128  C          9.2280   16.2130  -25.4680 C.2   227  ARG227      0.2260
    129  O          8.4050   15.4650  -26.0120 O.2   227  ARG227     -0.2867
    130  CB         8.3300   15.9650  -23.1610 C.3   227  ARG227      0.0307
    131  CG         9.4360   15.2820  -22.3910 C.3   227  ARG227      0.0489
    132  CD        10.1860   14.1380  -23.0650 C.3   227  ARG227      0.2205
    133  NE         9.2420   13.1120  -23.4440 N.pl3 227  ARG227     -0.0865
    134  CZ         9.5890   11.8440  -23.6280 C.cat 227  ARG227      0.5346
    135  NH1       10.8350   11.4380  -23.4730 N.pl3 227  ARG227      0.1354
    136  NH2        8.6810   10.9490  -23.9670 N.pl3 227  ARG227      0.1354
    137  N         11.0300   13.3590  -27.4200 N.3   229  ASP229     -0.1225
    138  CA        11.5380   12.0200  -27.2530 C.3   229  ASP229      0.1805
    139  C         12.8560   11.7790  -27.9940 C.2   229  ASP229      0.2597
    140  O         13.0570   12.2680  -29.1040 O.2   229  ASP229     -0.2718
    141  CB        10.4510   11.0770  -27.7330 C.3   229  ASP229      0.1424
    142  CG        10.8280    9.6210  -27.7240 C.2   229  ASP229      0.3668
    143  OD1       10.9510    9.0810  -26.6420 O.co2 229  ASP229     -0.2456
    144  OD2       10.9900    9.0340  -28.7910 O.co2 229  ASP229     -0.2456
    145  N         13.7360   10.9640  -27.4000 N.am  230  ALA230     -0.1979
    146  CA        14.9660   10.4750  -28.0160 C.3   230  ALA230      0.1597
    147  C         15.8660   11.4960  -28.6870 C.2   230  ALA230      0.2287
    148  O         16.3830   11.2660  -29.7860 O.2   230  ALA230     -0.2864
    149  CB        14.6170    9.3720  -29.0370 C.3   230  ALA230      0.0319
    150  N         18.8430   12.0920  -28.1890 N.3   232  LYS232     -0.1231
    151  CA        20.1570   11.5250  -28.4370 C.3   232  LYS232      0.1693
    152  C         20.2120   10.8370  -29.8090 C.2   232  LYS232      0.2592
    153  O         21.2830   10.4840  -30.2840 O.2   232  LYS232     -0.2718
    154  CB        20.4370   10.5230  -27.3240 C.3   232  LYS232      0.0285
    155  CG        21.8540   10.0810  -27.2540 C.3   232  LYS232      0.0035
    156  CD        21.9770    9.0440  -26.1720 C.3   232  LYS232      0.0206
    157  CE        23.4630    8.7330  -26.1270 C.3   232  LYS232      0.1093
    158  NZ        23.7230    7.8080  -25.0510 N.3   232  LYS232     -0.1314
    159  N         19.0620   10.6310  -30.4620 N.am  233  HIS233     -0.1976
    160  CA        18.9610    9.7980  -31.6480 C.3   233  HIS233      0.1656
    161  C         18.5420   10.5470  -32.8970 C.2   233  HIS233      0.2291
    162  O         18.1320    9.9510  -33.9190 O.2   233  HIS233     -0.2864
    163  CB        17.9800    8.6320  -31.3580 C.3   233  HIS233      0.0771
    164  CG        18.5660    7.7070  -30.3010 C.ar  233  HIS233      0.0820
    165  ND1       19.6750    6.9770  -30.3560 N.ar  233  HIS233     -0.2267
    166  CD2       18.0600    7.5550  -29.0510 C.ar  233  HIS233      0.1154
    167  CE1       19.8640    6.4040  -29.2080 C.ar  233  HIS233      0.1986
    168  NE2       18.8880    6.7600  -28.4330 N.ar  233  HIS233     -0.2212
    169  N         14.5520   14.0490  -23.7300 N.3   257  GLU257     -0.1231
    170  CA        15.0110   12.9060  -22.9700 C.3   257  GLU257      0.1699
    171  C         16.2910   12.3680  -23.6080 C.2   257  GLU257      0.2592
    172  O         16.2890   11.9210  -24.7680 O.2   257  GLU257     -0.2718
    173  CB        13.9720   11.7870  -22.9500 C.3   257  GLU257      0.0402
    174  CG        14.5440   10.5560  -22.2520 C.3   257  GLU257      0.1161
    175  CD        13.5500    9.4760  -21.8990 C.2   257  GLU257      0.3649
    176  OE1       13.7980    8.7130  -20.9750 O.co2 257  GLU257     -0.2457
    177  OE2       12.4940    9.4090  -22.5000 O.co2 257  GLU257     -0.2457
    178  N         17.3610   12.4020  -22.8150 N.am  258  TRP258     -0.1962
    179  CA        18.6670   11.8540  -23.1650 C.3   258  TRP258      0.1771
    180  C         18.9290   11.0930  -21.8840 C.2   258  TRP258      0.2619
    181  O         19.2570   11.6430  -20.8300 O.2   258  TRP258     -0.2715
    182  CB        19.6890   12.9720  -23.3560 C.3   258  TRP258      0.0590
    183  CG        21.1090   12.5600  -23.7510 C.ar  258  TRP258      0.0006
    184  CD1       21.8480   11.6230  -23.0660 C.ar  258  TRP258      0.0946
    185  CD2       21.8170   13.1310  -24.7590 C.ar  258  TRP258      0.0152
    186  NE1       23.0240   11.6090  -23.6280 N.ar  258  TRP258     -0.2442
    187  CE2       23.0540   12.4940  -24.6460 C.ar  258  TRP258      0.0810
    188  CE3       21.5870   14.0810  -25.7360 C.ar  258  TRP258      0.0012
    189  CZ2       24.0820   12.8180  -25.5290 C.ar  258  TRP258      0.0191
    190  CZ3       22.6180   14.3980  -26.6230 C.ar  258  TRP258      0.0001
    191  CH2       23.8590   13.7720  -26.5220 C.ar  258  TRP258      0.0015
    192  N         18.8090    9.7800  -21.9840 N.am  259  PHE259     -0.1974
    193  CA        18.9440    8.9050  -20.8470 C.3   259  PHE259      0.1639
    194  C         20.3650    8.9060  -20.3020 C.2   259  PHE259      0.2290
    195  O         21.3160    8.8560  -21.0750 O.2   259  PHE259     -0.2864
    196  CB        18.5270    7.4950  -21.2900 C.3   259  PHE259      0.0560
    197  CG        18.4570    6.5500  -20.1190 C.ar  259  PHE259     -0.0200
    198  CD1       17.2610    6.4450  -19.4130 C.ar  259  PHE259     -0.0042
    199  CD2       19.5870    5.8420  -19.7080 C.ar  259  PHE259     -0.0042
    200  CE1       17.2010    5.6390  -18.2750 C.ar  259  PHE259     -0.0003
    201  CE2       19.5100    5.0410  -18.5700 C.ar  259  PHE259     -0.0003
    202  CZ        18.3180    4.9460  -17.8560 C.ar  259  PHE259     -0.0000
    203  N          8.5530    6.9730  -16.8620 N.3   327  HIS327     -0.1226
    204  CA         8.2300    5.8940  -17.7930 C.3   327  HIS327      0.1752
    205  C          9.3620    4.9270  -18.1620 C.2   327  HIS327      0.2596
    206  O          9.1270    3.8350  -18.6520 O.2   327  HIS327     -0.2718
    207  CB         7.6660    6.5750  -19.0430 C.3   327  HIS327      0.0759
    208  CG         8.6010    7.5960  -19.6890 C.ar  327  HIS327      0.0818
    209  ND1        9.1870    8.7100  -19.2210 N.ar  327  HIS327     -0.2268
    210  CD2        9.0570    7.4140  -20.9580 C.ar  327  HIS327      0.1154
    211  CE1        9.9820    9.1830  -20.1480 C.ar  327  HIS327      0.1986
    212  NE2        9.8830    8.3930  -21.1730 N.ar  327  HIS327     -0.2212
    213  N         10.6190    5.3390  -17.9670 N.am  328  ASP328     -0.1974
    214  CA        11.7790    4.5440  -18.3100 C.3   328  ASP328      0.1709
    215  C         12.5860    4.0720  -17.1210 C.2   328  ASP328      0.2293
    216  O         13.7700    3.7530  -17.2570 O.2   328  ASP328     -0.2864
    217  CB        12.6990    5.3450  -19.2150 C.3   328  ASP328      0.1436
    218  CG        12.3240    5.3490  -20.6830 C.2   328  ASP328      0.3671
    219  OD1       12.8860    6.1890  -21.3740 O.co2 328  ASP328     -0.2456
    220  OD2       11.5100    4.5280  -21.1320 O.co2 328  ASP328     -0.2456
    221  N          9.3840   -0.9760  -17.8820 N.3   371  ASP371     -0.1239
    222  CA         8.4310   -1.0630  -18.9840 C.3   371  ASP371      0.1674
    223  C          7.9660   -2.4750  -19.3190 C.2   371  ASP371      0.2266
    224  O          8.8250   -3.3290  -19.5310 O.2   371  ASP371     -0.2867
    225  CB         9.1000   -0.4020  -20.1930 C.3   371  ASP371      0.1410
    226  CG         8.3400   -0.3220  -21.5060 C.2   371  ASP371      0.3668
    227  OD1        8.9900   -0.1310  -22.5340 O.co2 371  ASP371     -0.2456
    228  OD2        7.1170   -0.4120  -21.5090 O.co2 371  ASP371     -0.2456
    229  N          4.0990    1.2570  -15.8690 N.3   375  ARG375     -0.1245
    230  CA         2.9960    1.9700  -16.5100 C.3   375  ARG375      0.1563
    231  C          1.6660    1.3390  -16.1350 C.2   375  ARG375      0.2260
    232  O          0.7620    1.3010  -16.9600 O.2   375  ARG375     -0.2867
    233  CB         3.1500    1.9270  -18.0380 C.3   375  ARG375      0.0307
    234  CG         4.3680    2.6500  -18.4960 C.3   375  ARG375      0.0489
    235  CD         5.0670    1.8970  -19.5920 C.3   375  ARG375      0.2205
    236  NE         6.3180    2.5710  -19.8700 N.pl3 375  ARG375     -0.0865
    237  CZ         6.7580    2.7750  -21.1040 C.cat 375  ARG375      0.5346
    238  NH1        6.0630    2.3690  -22.1690 N.pl3 375  ARG375      0.1354
    239  NH2        7.9340    3.3740  -21.2720 N.pl3 375  ARG375      0.1354
@<TRIPOS>BOND
     1   121   120    2
     2   120   119    1
     3   113   112    2
     4    71    70    1
     5    71    72    2
     6    70    69    1
     7    70    73    1
     8   112   111    1
     9   112   118   am
    10   119   118    1
    11   119   122    1
    12   111   114    1
    13   111   110    1
    14    73    74    1
    15   114   115    1
    16   101   100    2
    17   116   115   ar
    18   122   123    1
    19    90    91    1
    20   115   117   ar
    21    58    57    2
    22   162   161    2
    23   110   100   am
    24   100    99    1
    25    74    76   ar
    26    74    75   ar
    27    57    56    1
    28    76    78   ar
    29   125   123    1
    30   161   160    1
    31    93    92    2
    32   123   124    1
    33    91    92    1
    34    91    94    1
    35    56    59    1
    36    56    55    1
    37    92    98   am
    38    59    60    1
    39    75    77   ar
    40    12    11    1
    41    98    99    1
    42     9    11   ar
    43     9     7   ar
    44    99   102    1
    45    94    95    1
    46    78    77   ar
    47    11    10   ar
    48    60    62   ar
    49    60    61   ar
    50   160   163    1
    51   160   159    1
    52     7     6   ar
    53    65    62   ar
    54    65    67   ar
    55   163   164    1
    56    62    64   ar
    57    61    63   ar
    58    46    45    2
    59    55    45   am
    60   102   103    1
    61    95    96    1
    62    95    97    1
    63    67    68   ar
    64    45    44    1
    65    10     8   ar
    66    63    64   ar
    67    64    66   ar
    68    79    80    1
    69   159   152   am
    70     6     8   ar
    71     6     5    1
    72     1     2    1
    73   165   164   ar
    74   165   167   ar
    75   164   166   ar
    76     2     5    1
    77     2     3    1
    78   153   152    2
    79    68    66   ar
    80    16    15    2
    81   152   151    1
    82   148   147    2
    83   103   105   ar
    84   103   104   ar
    85    80    81    1
    86    80    83    1
    87     3     4    2
    88    81    82    2
    89    44    43    1
    90    44    47    1
    91   167   168   ar
    92   140   139    2
    93   105   107   ar
    94   166   168   ar
    95   149   146    1
    96   104   106   ar
    97    15    14    1
    98   144   142   ar
    99   147   146    1
   100    88    89   ar
   101    88    86   ar
   102    89    87   ar
   103    86    84   ar
   104    17    14    1
   105    17    18    1
   106    13    14    1
   107    87    85   ar
   108   151   150    1
   109   151   154    1
   110    47    48    1
   111    84    85   ar
   112    84    83    1
   113   146   145    1
   114   139   145   am
   115   139   138    1
   116    41    39   ar
   117    41    42   ar
   118   107   108   ar
   119   106   108   ar
   120   141   142    1
   121   141   138    1
   122   142   143   ar
   123   137   138    1
   124    18    20   am
   125    18    19    2
   126    39    38   ar
   127   154   155    1
   128   155   156    1
   129   108   109    1
   130    42    40   ar
   131    21    22    1
   132    48    49   ar
   133    48    50   ar
   134    49    51   ar
   135   190   191   ar
   136   190   188   ar
   137   191   189   ar
   138   156   157    1
   139   157   158    1
   140    38    40   ar
   141    38    37    1
   142   129   128    2
   143    22    23    1
   144    22    25    1
   145    50    52   ar
   146    35    36    2
   147    35    34    1
   148   188   185   ar
   149   189   187   ar
   150    51    53   ar
   151    33    23   am
   152    33    34    1
   153   128   127    1
   154    23    24    2
   155    34    37    1
   156    25    26    1
   157   172   171    2
   158   185   187   ar
   159   185   183   ar
   160   187   186   ar
   161   126   127    1
   162    52    53   ar
   163    28    26   ar
   164    28    30   ar
   165    53    54    1
   166   127   130    1
   167    26    27   ar
   168   136   134    1
   169    30    31   ar
   170   183   182    1
   171   183   184   ar
   172   169   170    1
   173   134   135    1
   174   134   133    2
   175   186   184   ar
   176   171   170    1
   177   171   178   am
   178   133   132    1
   179   182   179    1
   180   179   178    1
   181   179   180    1
   182   130   131    1
   183   132   131    1
   184   170   173    1
   185   173   174    1
   186    27    29   ar
   187    31    29   ar
   188    31    32    1
   189   227   226   ar
   190   177   175   ar
   191   174   175    1
   192   238   237    1
   193   192   180   am
   194   192   193    1
   195   175   176   ar
   196   180   181    2
   197   228   226   ar
   198   226   225    1
   199   219   218   ar
   200   196   193    1
   201   196   197    1
   202   239   237    1
   203   212   210   ar
   204   212   211   ar
   205   220   218   ar
   206   237   236    2
   207   195   194    2
   208   210   208   ar
   209   193   194    1
   210   218   217    1
   211   225   222    1
   212   211   209   ar
   213   197   199   ar
   214   197   198   ar
   215   236   235    1
   216   199   201   ar
   217   208   209   ar
   218   208   207    1
   219   235   234    1
   220   224   223    2
   221   198   200   ar
   222   223   222    1
   223   217   214    1
   224   207   204    1
   225   222   221    1
   226   206   205    2
   227   201   202   ar
   228   234   233    1
   229   214   213    1
   230   214   215    1
   231   200   202   ar
   232   205   213   am
   233   205   204    1
   234   233   230    1
   235   204   203    1
   236   216   215    2
   237   232   231    2
   238   230   231    1
   239   230   229    1
