@<TRIPOS>MOLECULE
tmp/1v3mB03.pdb
 84 83 0 0 0
SMALL
GASTEIGER

@<TRIPOS>ATOM
      1  N         42.6160   12.1250  -42.1310 N.3   598  THR598     -0.1203
      2  CA        43.1540   12.6910  -40.9290 C.3   598  THR598      0.1994
      3  C         44.1430   11.7450  -40.2880 C.2   598  THR598      0.2618
      4  O         44.2870   10.5790  -40.6600 O.2   598  THR598     -0.2717
      5  CB        42.0010   13.0260  -39.9590 C.3   598  THR598      0.1784
      6  OG1       41.3390   11.8140  -39.6540 O.3   598  THR598     -0.2211
      7  CG2       41.0230   14.0450  -40.5290 C.3   598  THR598      0.0376
      8  N         44.8410   12.2970  -39.3220 N.am  599  ALA599     -0.1965
      9  CA        45.8170   11.5960  -38.5450 C.3   599  ALA599      0.1728
     10  C         45.1480   10.9000  -37.3730 C.2   599  ALA599      0.2616
     11  O         43.9210   10.8530  -37.2310 O.2   599  ALA599     -0.2715
     12  CB        46.8410   12.6170  -38.0540 C.3   599  ALA599      0.0334
     13  N         46.0160   10.3520  -36.5210 N.am  600  LEU600     -0.1963
     14  CA        45.7050    9.7040  -35.2580 C.3   600  LEU600      0.1728
     15  C         44.8480   10.6580  -34.4330 C.2   600  LEU600      0.2617
     16  O         45.3750   11.5800  -33.8090 O.2   600  LEU600     -0.2715
     17  CB        47.0480    9.3600  -34.4990 C.3   600  LEU600      0.0311
     18  CG        48.1680   10.3990  -34.0430 C.3   600  LEU600      0.0022
     19  CD1       48.9820    9.7890  -32.9030 C.3   600  LEU600      0.0001
     20  CD2       49.1270   10.7650  -35.1770 C.3   600  LEU600      0.0001
     21  N         43.5260   10.5780  -34.4920 N.am  601  GLY601     -0.1940
     22  CA        42.7100   11.4720  -33.6700 C.3   601  GLY601      0.2014
     23  C         42.7440   12.9480  -34.0950 C.2   601  GLY601      0.2639
     24  O         42.7080   13.8870  -33.2890 O.2   601  GLY601     -0.2714
     25  N         42.8600   13.1560  -35.3980 N.am  602  GLN602     -0.1963
     26  CA        42.7050   14.4670  -35.9700 C.3   602  GLN602      0.1733
     27  C         41.2950   14.3360  -36.5480 C.2   602  GLN602      0.2616
     28  O         40.9410   13.3070  -37.1480 O.2   602  GLN602     -0.2715
     29  CB        43.7490   14.6410  -37.0270 C.3   602  GLN602      0.0408
     30  CG        43.7470   15.9970  -37.6990 C.3   602  GLN602      0.0908
     31  CD        44.7110   16.0420  -38.8690 C.2   602  GLN602      0.2608
     32  OE1       44.9140   15.0500  -39.5650 O.2   602  GLN602     -0.2717
     33  NE2       45.3360   17.1630  -39.1710 N.am  602  GLN602     -0.0878
     34  N         40.4440   15.3360  -36.3780 N.am  603  ASN603     -0.1972
     35  CA        39.0750   15.2410  -36.8730 C.3   603  ASN603      0.1688
     36  C         38.7420   16.4030  -37.7720 C.2   603  ASN603      0.2292
     37  O         39.4330   17.4240  -37.6930 O.2   603  ASN603     -0.2864
     38  CB        38.0960   15.2570  -35.7440 C.3   603  ASN603      0.1181
     39  CG        38.1920   14.0210  -34.8870 C.2   603  ASN603      0.2629
     40  OD1       37.6030   12.9830  -35.1680 O.2   603  ASN603     -0.2716
     41  ND2       38.9380   14.0940  -33.7960 N.am  603  ASN603     -0.0877
     42  N         31.7190   10.1390  -39.8210 N.3   627  ASN627     -0.1225
     43  CA        32.3550    9.5170  -40.9670 C.3   627  ASN627      0.1785
     44  C         32.1800    8.0140  -40.9740 C.2   627  ASN627      0.2597
     45  O         33.0370    7.2620  -41.4410 O.2   627  ASN627     -0.2718
     46  CB        33.8280    9.8390  -40.9490 C.3   627  ASN627      0.1169
     47  CG        34.5140    9.3590  -39.6860 C.2   627  ASN627      0.2627
     48  OD1       33.9950    8.5570  -38.8940 O.2   627  ASN627     -0.2716
     49  ND2       35.7110    9.8900  -39.4640 N.am  627  ASN627     -0.0877
     50  N         31.0740    7.5330  -40.4250 N.am  628  GLN628     -0.1979
     51  CA        30.8350    6.0990  -40.3640 C.3   628  GLN628      0.1601
     52  C         29.5810    5.6530  -41.1280 C.2   628  GLN628      0.2287
     53  O         29.6600    4.8890  -42.0920 O.2   628  GLN628     -0.2864
     54  CB        30.6720    5.6270  -38.9310 C.3   628  GLN628      0.0394
     55  CG        31.8460    5.7730  -37.9800 C.3   628  GLN628      0.0908
     56  CD        31.4690    5.7320  -36.4900 C.2   628  GLN628      0.2608
     57  OE1       30.3380    5.4900  -36.0260 O.2   628  GLN628     -0.2717
     58  NE2       32.4800    6.0220  -35.6850 N.am  628  GLN628     -0.0878
     59  N         34.5820    7.4700  -43.8490 N.3   633  TYR633     -0.1241
     60  CA        35.8910    8.1070  -43.9130 C.3   633  TYR633      0.1605
     61  C         36.6670    7.6700  -45.1660 C.2   633  TYR633      0.2264
     62  O         36.7080    6.4650  -45.4260 O.2   633  TYR633     -0.2867
     63  CB        36.6880    7.7470  -42.6490 C.3   633  TYR633      0.0534
     64  CG        38.1350    8.2560  -42.6200 C.ar  633  TYR633     -0.0201
     65  CD1       38.4570    9.5080  -42.0710 C.ar  633  TYR633     -0.0009
     66  CD2       39.1510    7.4450  -43.1620 C.ar  633  TYR633     -0.0009
     67  CE1       39.7820    9.9450  -42.0640 C.ar  633  TYR633      0.0417
     68  CE2       40.4710    7.8840  -43.1510 C.ar  633  TYR633      0.0417
     69  CZ        40.7790    9.1260  -42.6010 C.ar  633  TYR633      0.1957
     70  OH        42.1000    9.5160  -42.5710 O.3   633  TYR633     -0.2866
     71  N         33.5320   12.8990  -44.6060 N.3   636  TRP636     -0.1241
     72  CA        32.9540   13.2390  -43.3320 C.3   636  TRP636      0.1605
     73  C         31.6610   13.9960  -43.6420 C.2   636  TRP636      0.2264
     74  O         31.5840   14.6650  -44.6830 O.2   636  TRP636     -0.2867
     75  CB        33.8950   14.1440  -42.5600 C.3   636  TRP636      0.0550
     76  CG        35.2310   13.5450  -42.1890 C.ar  636  TRP636      0.0003
     77  CD1       36.1510   13.1970  -43.1400 C.ar  636  TRP636      0.0946
     78  CD2       35.6770   13.3180  -40.9180 C.ar  636  TRP636      0.0152
     79  NE1       37.1850   12.7530  -42.4770 N.ar  636  TRP636     -0.2442
     80  CE2       36.9550   12.8010  -41.1570 C.ar  636  TRP636      0.0810
     81  CE3       35.2140   13.4700  -39.6180 C.ar  636  TRP636      0.0012
     82  CZ2       37.7840   12.4290  -40.1000 C.ar  636  TRP636      0.0191
     83  CZ3       36.0410   13.0980  -38.5590 C.ar  636  TRP636      0.0001
     84  CH2       37.3200   12.5760  -38.7960 C.ar  636  TRP636      0.0015
@<TRIPOS>BOND
     1    62    61    2
     2    61    60    1
     3    74    73    2
     4    71    72    1
     5    60    59    1
     6    60    63    1
     7    73    72    1
     8    72    75    1
     9    66    68   ar
    10    66    64   ar
    11    68    69   ar
    12    77    79   ar
    13    77    76   ar
    14    63    64    1
    15    64    65   ar
    16    69    70    1
    17    69    67   ar
    18    75    76    1
    19    79    80   ar
    20    76    78   ar
    21     1     2    1
    22    53    52    2
    23    65    67   ar
    24    45    44    2
    25    80    78   ar
    26    80    82   ar
    27    52    51    1
    28    44    43    1
    29    44    50   am
    30    43    46    1
    31    43    42    1
    32    46    47    1
    33     2     3    1
    34     2     5    1
    35    78    81   ar
    36     4     3    2
    37     7     5    1
    38    50    51    1
    39    51    54    1
    40     3     8   am
    41    82    84   ar
    42     5     6    1
    43    47    49   am
    44    47    48    2
    45    81    83   ar
    46    32    31    2
    47     8     9    1
    48    33    31   am
    49    54    55    1
    50    31    30    1
    51    84    83   ar
    52     9    12    1
    53     9    10    1
    54    55    56    1
    55    36    37    2
    56    36    35    1
    57    30    29    1
    58    10    11    2
    59    10    13   am
    60    28    27    2
    61    29    26    1
    62    35    34    1
    63    35    38    1
    64    27    34   am
    65    27    26    1
    66    13    14    1
    67    56    57    2
    68    56    58   am
    69    26    25    1
    70    38    39    1
    71    25    23   am
    72    14    17    1
    73    14    15    1
    74    20    18    1
    75    40    39    2
    76    39    41   am
    77    17    18    1
    78    21    15   am
    79    21    22    1
    80    15    16    2
    81    23    22    1
    82    23    24    2
    83    18    19    1
