@<TRIPOS>MOLECULE
tmp/1v3qA00.pdb
 132 125 0 0 0
SMALL
GASTEIGER

@<TRIPOS>ATOM
      1  N        -23.6340   84.9580    5.4500 N.3    32  SER32      -0.1217
      2  CA       -24.1820   86.3050    5.6410 C.3    32  SER32       0.1889
      3  C        -25.4880   86.5410    4.9150 C.2    32  SER32       0.2288
      4  O        -25.5910   86.2560    3.7200 O.2    32  SER32      -0.2866
      5  CB       -23.1950   87.3800    5.1800 C.3    32  SER32       0.2089
      6  OG       -23.8910   88.5440    4.7450 O.3    32  SER32      -0.2183
      7  N        -15.7070   83.2500   12.0230 N.3    85  HIS85      -0.1241
      8  CA       -14.7330   83.4410   10.9630 C.3    85  HIS85       0.1621
      9  C        -13.3350   83.5240   11.5480 C.2    85  HIS85       0.2264
     10  O        -13.1500   83.9120   12.7060 O.2    85  HIS85      -0.2867
     11  CB       -14.9880   84.7430   10.2420 C.3    85  HIS85       0.0745
     12  CG       -16.3560   84.8670    9.6780 C.ar   85  HIS85       0.0817
     13  ND1      -17.4650   85.0580   10.4670 N.ar   85  HIS85      -0.2268
     14  CD2      -16.7850   84.9110    8.3990 C.ar   85  HIS85       0.1154
     15  CE1      -18.5240   85.2250    9.6950 C.ar   85  HIS85       0.1986
     16  NE2      -18.1360   85.1430    8.4360 N.ar   85  HIS85      -0.2212
     17  N        -11.1010   85.6280   10.5810 N.3    87  TYR87      -0.1241
     18  CA       -10.9040   87.0620   10.8020 C.3    87  TYR87       0.1605
     19  C        -11.4280   87.7300   12.0630 C.2    87  TYR87       0.2264
     20  O        -11.1810   88.9020   12.2620 O.2    87  TYR87      -0.2867
     21  CB       -11.3450   87.8850    9.5990 C.3    87  TYR87       0.0534
     22  CG       -12.8250   87.9470    9.3780 C.ar   87  TYR87      -0.0201
     23  CD1      -13.4050   87.3010    8.2930 C.ar   87  TYR87      -0.0009
     24  CD2      -13.6380   88.6550   10.2310 C.ar   87  TYR87      -0.0009
     25  CE1      -14.7530   87.3560    8.0700 C.ar   87  TYR87       0.0417
     26  CE2      -14.9840   88.7130   10.0160 C.ar   87  TYR87       0.0417
     27  CZ       -15.5410   88.0570    8.9380 C.ar   87  TYR87       0.1957
     28  OH       -16.9030   88.0520    8.7740 O.3    87  TYR87      -0.2866
     29  N        -21.5930   84.0970    1.3830 N.3   115  ALA115     -0.1231
     30  CA       -21.6800   85.1460    0.3940 C.3   115  ALA115      0.1694
     31  C        -20.2130   85.2150    0.0150 C.2   115  ALA115      0.2592
     32  O        -19.3440   85.0230    0.8740 O.2   115  ALA115     -0.2718
     33  CB       -22.1070   86.4330    1.0310 C.3   115  ALA115      0.0304
     34  N        -19.9250   85.4780   -1.2470 N.am  116  ALA116     -0.1966
     35  CA       -18.5540   85.5030   -1.6930 C.3   116  ALA116      0.1728
     36  C        -18.4560   86.5220   -2.7900 C.2   116  ALA116      0.2616
     37  O        -19.4730   86.9220   -3.3410 O.2   116  ALA116     -0.2715
     38  CB       -18.1950   84.1440   -2.2260 C.3   116  ALA116      0.0334
     39  N        -17.2400   86.9250   -3.1250 N.am  117  GLY117     -0.1955
     40  CA       -17.0510   87.9070   -4.1670 C.3   117  GLY117      0.1869
     41  C        -16.9800   87.2100   -5.4910 C.2   117  GLY117      0.2309
     42  O        -16.5740   86.0620   -5.5390 O.2   117  GLY117     -0.2863
     43  N         -9.7500   90.3580    7.1110 N.3   197  PRO197     -0.2116
     44  CA       -11.0910   90.9350    7.0620 C.3   197  PRO197      0.1372
     45  C        -11.1960   91.9790    5.9650 C.2   197  PRO197      0.2244
     46  O        -12.2660   92.1600    5.3910 O.2   197  PRO197     -0.2868
     47  CB       -11.2720   91.5070    8.4580 C.3   197  PRO197      0.0268
     48  CG        -9.9460   91.8720    8.8510 C.3   197  PRO197      0.0207
     49  CD        -9.0520   90.7660    8.3370 C.3   197  PRO197      0.0892
     50  N        -10.8120   93.8250    2.2300 N.3   199  PHE199     -0.1227
     51  CA       -11.1630   93.2810    0.9220 C.3   199  PHE199      0.1736
     52  C        -10.0020   93.2970   -0.0440 C.2   199  PHE199      0.2595
     53  O         -9.1630   94.1800    0.0070 O.2   199  PHE199     -0.2718
     54  CB       -12.3810   93.9860    0.3260 C.3   199  PHE199      0.0547
     55  CG       -13.7040   93.4590    0.8350 C.ar  199  PHE199     -0.0202
     56  CD1      -13.7540   92.4260    1.7530 C.ar  199  PHE199     -0.0042
     57  CD2      -14.8880   94.0050    0.3960 C.ar  199  PHE199     -0.0042
     58  CE1      -14.9570   91.9550    2.2170 C.ar  199  PHE199     -0.0003
     59  CE2      -16.0960   93.5360    0.8610 C.ar  199  PHE199     -0.0003
     60  CZ       -16.1320   92.5090    1.7730 C.ar  199  PHE199     -0.0000
     61  N         -9.9710   92.3200   -0.9360 N.am  200  GLU200     -0.1979
     62  CA        -8.8920   92.1650   -1.9140 C.3   200  GLU200      0.1602
     63  C         -8.5560   93.3920   -2.7330 C.2   200  GLU200      0.2287
     64  O         -9.4250   94.1740   -3.0810 O.2   200  GLU200     -0.2864
     65  CB        -9.1820   90.9950   -2.8780 C.3   200  GLU200      0.0415
     66  CG        -9.2180   89.6080   -2.2290 C.3   200  GLU200      0.1163
     67  CD       -10.3870   89.4380   -1.2770 C.2   200  GLU200      0.3649
     68  OE1      -10.2530   88.6990   -0.2780 O.co2 200  GLU200     -0.2457
     69  OE2      -11.4480   90.0500   -1.5220 O.co2 200  GLU200     -0.2457
     70  N        -14.5040   84.3530   -4.1880 N.3   216  VAL216     -0.1231
     71  CA       -13.5590   84.4400   -3.0690 C.3   216  VAL216      0.1692
     72  C        -14.3500   84.7480   -1.8280 C.2   216  VAL216      0.2593
     73  O        -15.3280   85.4670   -1.9100 O.2   216  VAL216     -0.2718
     74  CB       -12.5070   85.5520   -3.2450 C.3   216  VAL216      0.0266
     75  CG1      -13.1500   86.8860   -3.6080 C.3   216  VAL216      0.0020
     76  CG2      -11.7450   85.7180   -1.9510 C.3   216  VAL216      0.0020
     77  N        -13.9220   84.2250   -0.6900 N.am  217  GLY217     -0.1942
     78  CA       -14.6450   84.4590    0.5430 C.3   217  GLY217      0.2014
     79  C        -13.7550   84.2190    1.7370 C.2   217  GLY217      0.2638
     80  O        -12.5990   83.8640    1.5680 O.2   217  GLY217     -0.2714
     81  N        -14.2990   84.3280    2.9430 N.am  218  MET218     -0.1976
     82  CA       -13.4970   84.1710    4.1510 C.3   218  MET218      0.1605
     83  C        -13.9470   83.0860    5.1580 C.2   218  MET218      0.2287
     84  O        -13.7150   83.2360    6.3610 O.2   218  MET218     -0.2864
     85  CB       -13.4130   85.5330    4.8710 C.3   218  MET218      0.0413
     86  CG       -12.9880   86.7420    4.0030 C.3   218  MET218      0.0598
     87  SD       -13.2640   88.3530    4.7760 S.3   218  MET218     -0.1393
     88  CE       -13.1660   89.3240    3.4000 C.3   218  MET218      0.0692
     89  N        -22.1460   88.3740   -3.8650 N.3   241  THR241     -0.1203
     90  CA       -22.6670   89.6570   -3.4210 C.3   241  THR241      0.1994
     91  C        -22.0220   90.8380   -4.1250 C.2   241  THR241      0.2617
     92  O        -22.5110   91.9630   -4.0450 O.2   241  THR241     -0.2717
     93  CB       -22.5350   89.8620   -1.8960 C.3   241  THR241      0.1784
     94  OG1      -21.1600   89.7650   -1.5020 O.3   241  THR241     -0.2211
     95  CG2      -23.3490   88.8470   -1.1450 C.3   241  THR241      0.0376
     96  N        -20.9100   90.6140   -4.7970 N.am  242  ASN242     -0.1974
     97  CA       -20.2800   91.7220   -5.4810 C.3   242  ASN242      0.1688
     98  C        -19.2070   91.2230   -6.4010 C.2   242  ASN242      0.2292
     99  O        -18.5590   90.2340   -6.1100 O.2   242  ASN242     -0.2864
    100  CB       -19.6780   92.7000   -4.4770 C.3   242  ASN242      0.1181
    101  CG       -18.6240   92.0630   -3.6030 C.2   242  ASN242      0.2629
    102  OD1      -18.9440   91.3670   -2.6380 O.2   242  ASN242     -0.2716
    103  ND2      -17.3600   92.2930   -3.9330 N.am  242  ASN242     -0.0877
    104  N        -15.6580   91.3370   -8.1140 N.3   244  VAL244     -0.1245
    105  CA       -14.3610   91.7940   -7.6580 C.3   244  VAL244      0.1561
    106  C        -13.6710   92.5830   -8.7590 C.2   244  VAL244      0.2260
    107  O        -13.6760   92.1830   -9.9200 O.2   244  VAL244     -0.2867
    108  CB       -13.5000   90.6020   -7.1640 C.3   244  VAL244      0.0252
    109  CG1      -12.1480   91.0770   -6.6490 C.3   244  VAL244      0.0019
    110  CG2      -14.2410   89.8730   -6.0520 C.3   244  VAL244      0.0019
    111  N        -15.6600   97.9850   -3.4080 N.3   254  ALA254     -0.1245
    112  CA       -16.2640   96.8920   -2.6130 C.3   254  ALA254      0.1562
    113  C        -16.6020   97.4050   -1.2220 C.2   254  ALA254      0.2260
    114  O        -15.7450   97.9740   -0.5380 O.2   254  ALA254     -0.2867
    115  CB       -15.3380   95.6920   -2.4870 C.3   254  ALA254      0.0290
    116  N        -19.4670   96.6490    2.3930 N.3   256  HIS256     -0.1241
    117  CA       -20.3710   95.6940    3.0300 C.3   256  HIS256      0.1621
    118  C        -21.8380   96.0360    2.8000 C.2   256  HIS256      0.2264
    119  O        -22.7120   95.2000    3.0230 O.2   256  HIS256     -0.2867
    120  CB       -20.0850   95.5540    4.5280 C.3   256  HIS256      0.0745
    121  CG       -20.7720   94.3800    5.1620 C.ar  256  HIS256      0.0817
    122  ND1      -20.7090   93.1060    4.6350 N.ar  256  HIS256     -0.2268
    123  CD2      -21.5230   94.2830    6.2860 C.ar  256  HIS256      0.1154
    124  CE1      -21.3850   92.2760    5.4090 C.ar  256  HIS256      0.1986
    125  NE2      -21.8890   92.9650    6.4170 N.ar  256  HIS256     -0.2212
    126  N        -24.1590   94.0170    1.1070 N.3   259  VAL259     -0.1245
    127  CA       -24.8470   92.9270    1.8040 C.3   259  VAL259      0.1561
    128  C        -26.3450   93.0410    1.4570 C.2   259  VAL259      0.2260
    129  O        -27.1000   92.0920    1.6570 O.2   259  VAL259     -0.2867
    130  CB       -24.6520   92.9780    3.3590 C.3   259  VAL259      0.0252
    131  CG1      -25.4050   94.1600    3.9810 C.3   259  VAL259      0.0019
    132  CG2      -25.1030   91.6660    3.9920 C.3   259  VAL259      0.0019
@<TRIPOS>BOND
     1   107   106    2
     2   106   105    1
     3   104   105    1
     4   105   108    1
     5   108   109    1
     6   108   110    1
     7    98    99    2
     8    98    97    1
     9    42    41    2
    10    41    40    1
    11    97    96    1
    12    97   100    1
    13    96    91   am
    14   100   101    1
    15    70    71    1
    16    40    39    1
    17    91    92    2
    18    91    90    1
    19   103   101   am
    20    89    90    1
    21    75    74    1
    22   101   102    2
    23    90    93    1
    24   111   112    1
    25    37    36    2
    26    74    71    1
    27    74    76    1
    28    39    36   am
    29    64    63    2
    30    71    72    1
    31    65    66    1
    32    65    62    1
    33    36    35    1
    34    63    62    1
    35   112   115    1
    36   112   113    1
    37    66    67    1
    38    38    35    1
    39    62    61    1
    40    73    72    2
    41    93    94    1
    42    93    95    1
    43    72    77   am
    44    35    34    1
    45    69    67   ar
    46    67    68   ar
    47    34    31   am
    48   113   114    2
    49    61    52   am
    50    77    78    1
    51    52    53    2
    52    52    51    1
    53    31    30    1
    54    31    32    2
    55    54    55    1
    56    54    51    1
    57    30    33    1
    58    30    29    1
    59    57    55   ar
    60    57    59   ar
    61    78    79    1
    62    55    56   ar
    63    59    60   ar
    64    51    50    1
    65   126   127    1
    66   128   129    2
    67   128   127    1
    68    80    79    2
    69    79    81   am
    70    56    58   ar
    71    60    58   ar
    72   127   130    1
    73   116   117    1
    74   118   119    2
    75   118   117    1
    76    81    82    1
    77   117   120    1
    78   130   131    1
    79   130   132    1
    80    88    87    1
    81     4     3    2
    82    86    87    1
    83    86    85    1
    84    82    85    1
    85    82    83    1
    86   120   121    1
    87   122   121   ar
    88   122   124   ar
    89     6     5    1
    90     3     2    1
    91    83    84    2
    92   121   123   ar
    93     5     2    1
    94    46    45    2
    95   124   125   ar
    96     1     2    1
    97    45    44    1
    98   123   125   ar
    99    44    43    1
   100    44    47    1
   101    43    49    1
   102    25    23   ar
   103    25    27   ar
   104    23    22   ar
   105    49    48    1
   106    14    16   ar
   107    14    12   ar
   108    16    15   ar
   109    47    48    1
   110    28    27    1
   111    27    26   ar
   112    22    21    1
   113    22    24   ar
   114    21    18    1
   115    12    11    1
   116    12    13   ar
   117    15    13   ar
   118    26    24   ar
   119    11     8    1
   120    17    18    1
   121    18    19    1
   122     8     9    1
   123     8     7    1
   124     9    10    2
   125    19    20    2
