@<TRIPOS>MOLECULE
tmp/1v3sA00.pdb
 126 123 0 0 0
SMALL
GASTEIGER

@<TRIPOS>ATOM
      1  N          7.4080   12.0860  -12.8580 N.3     7  ILE7       -0.1245
      2  CA         8.2700   11.6870  -11.7560 C.3     7  ILE7        0.1561
      3  C          8.2220   10.1680  -11.7170 C.2     7  ILE7        0.2260
      4  O          7.1620    9.5790  -11.4960 O.2     7  ILE7       -0.2867
      5  CB         7.7640   12.2820  -10.4350 C.3     7  ILE7        0.0252
      6  CG1        7.7780   13.8140  -10.5420 C.3     7  ILE7        0.0019
      7  CG2        8.6410   11.8030   -9.2800 C.3     7  ILE7        0.0019
      8  CD1        7.0480   14.5230   -9.4430 C.3     7  ILE7        0.0001
      9  N         15.3430   14.1110   -7.8040 N.3    33  VAL33      -0.1231
     10  CA        14.5610   14.7900   -6.7850 C.3    33  VAL33       0.1692
     11  C         14.2340   13.8290   -5.6480 C.2    33  VAL33       0.2592
     12  O         14.4610   12.6270   -5.7610 O.2    33  VAL33      -0.2718
     13  CB        13.2430   15.3320   -7.3720 C.3    33  VAL33       0.0266
     14  CG1       13.5420   16.3460   -8.4770 C.3    33  VAL33       0.0020
     15  CG2       12.4060   14.1780   -7.9160 C.3    33  VAL33       0.0020
     16  N         13.7160   14.3700   -4.5510 N.am   34  GLN34      -0.1966
     17  CA        13.3350   13.5680   -3.3890 C.3    34  GLN34       0.1733
     18  C         11.8280   13.7320   -3.2730 C.2    34  GLN34       0.2617
     19  O         11.3220   14.8500   -3.3420 O.2    34  GLN34      -0.2715
     20  CB        14.0060   14.1030   -2.1190 C.3    34  GLN34       0.0408
     21  CG        15.5320   14.0810   -2.1450 C.3    34  GLN34       0.0908
     22  CD        16.0900   12.6900   -2.3710 C.2    34  GLN34       0.2608
     23  OE1       15.8080   11.7620   -1.6110 O.2    34  GLN34      -0.2717
     24  NE2       16.8900   12.5390   -3.4210 N.am   34  GLN34      -0.0878
     25  N         11.1010   12.6370   -3.1050 N.am   35  GLY35      -0.1940
     26  CA         9.6610   12.7800   -3.0110 C.3    35  GLY35       0.2014
     27  C          8.9590   11.8940   -2.0090 C.2    35  GLY35       0.2639
     28  O          9.5270   10.9330   -1.4900 O.2    35  GLY35      -0.2714
     29  N          7.7080   12.2500   -1.7320 N.am   36  HIS36      -0.1959
     30  CA         6.8550   11.5020   -0.8190 C.3    36  HIS36       0.1787
     31  C          5.5290   11.3700   -1.5620 C.2    36  HIS36       0.2621
     32  O          5.1160   12.2900   -2.2680 O.2    36  HIS36      -0.2715
     33  CB         6.6470   12.2850    0.4800 C.3    36  HIS36       0.0785
     34  CG         5.9270   11.5140    1.5430 C.ar   36  HIS36       0.0821
     35  ND1        6.5400   10.5390    2.3010 N.ar   36  HIS36      -0.2267
     36  CD2        4.6390   11.5600    1.9600 C.ar   36  HIS36       0.1154
     37  CE1        5.6610   10.0180    3.1390 C.ar   36  HIS36       0.1986
     38  NE2        4.5000   10.6200    2.9530 N.ar   36  HIS36      -0.2212
     39  N          4.8700   10.2280   -1.4260 N.am   37  GLY37      -0.1940
     40  CA         3.6030   10.0480   -2.1080 C.3    37  GLY37       0.2014
     41  C          2.4250   10.2370   -1.1740 C.2    37  GLY37       0.2639
     42  O          2.6050   10.4290    0.0260 O.2    37  GLY37      -0.2714
     43  N          1.2150   10.1990   -1.7240 N.am   38  GLY38      -0.1939
     44  CA         0.0300   10.3470   -0.9000 C.3    38  GLY38       0.2014
     45  C         -0.0830    9.1650    0.0410 C.2    38  GLY38       0.2638
     46  O         -0.8550    9.1860    1.0000 O.2    38  GLY38      -0.2714
     47  N          0.7010    8.1290   -0.2400 N.am   39  GLU39      -0.1977
     48  CA         0.7190    6.9130    0.5650 C.3    39  GLU39       0.1602
     49  C          2.1570    6.4200    0.7120 C.2    39  GLU39       0.2287
     50  O          2.9540    6.5230   -0.2210 O.2    39  GLU39      -0.2864
     51  CB        -0.1230    5.8270   -0.1070 C.3    39  GLU39       0.0415
     52  CG        -1.5490    6.2460   -0.4200 C.3    39  GLU39       0.1163
     53  CD        -2.2970    5.1980   -1.2220 C.2    39  GLU39       0.3649
     54  OE1       -3.4740    5.4380   -1.5670 O.co2  39  GLU39      -0.2457
     55  OE2       -1.7060    4.1350   -1.5070 O.co2  39  GLU39      -0.2457
     56  N         11.8490    9.5220   -0.8130 N.3    43  HIS43      -0.1241
     57  CA        12.5090    8.5730   -1.6920 C.3    43  HIS43       0.1621
     58  C         13.0170    9.2740   -2.9430 C.2    43  HIS43       0.2264
     59  O         12.3870   10.2040   -3.4470 O.2    43  HIS43      -0.2867
     60  CB        11.5270    7.4690   -2.0810 C.3    43  HIS43       0.0745
     61  CG        11.0720    6.6380   -0.9230 C.ar   43  HIS43       0.0817
     62  ND1       11.8880    5.7180   -0.3030 N.ar   43  HIS43      -0.2268
     63  CD2        9.8980    6.6140   -0.2480 C.ar   43  HIS43       0.1154
     64  CE1       11.2380    5.1630    0.7040 C.ar   43  HIS43       0.1986
     65  NE2       10.0280    5.6900    0.7590 N.ar   43  HIS43      -0.2212
     66  N         13.7110   10.0540   -6.7690 N.3    45  LYS45      -0.1245
     67  CA        12.9830    9.8400   -8.0120 C.3    45  LYS45       0.1561
     68  C         13.6800   10.6380   -9.0990 C.2    45  LYS45       0.2260
     69  O         14.5650   11.4490   -8.8140 O.2    45  LYS45      -0.2867
     70  CB        11.5330   10.3300   -7.8870 C.3    45  LYS45       0.0271
     71  CG        10.7560    9.7350   -6.7190 C.3    45  LYS45       0.0035
     72  CD        10.5230    8.2360   -6.8850 C.3    45  LYS45       0.0206
     73  CE         9.8360    7.6490   -5.6620 C.3    45  LYS45       0.1093
     74  NZ         9.5480    6.1910   -5.8220 N.3    45  LYS45      -0.1314
     75  N          3.3220   -0.9850   -8.0820 N.3    72  GLU72      -0.1231
     76  CA         3.5530   -0.7790   -6.6570 C.3    72  GLU72       0.1699
     77  C          3.5270    0.7020   -6.2900 C.2    72  GLU72       0.2592
     78  O          3.7580    1.5610   -7.1380 O.2    72  GLU72      -0.2718
     79  CB         4.9110   -1.3580   -6.2590 C.3    72  GLU72       0.0402
     80  CG         5.0430   -2.8560   -6.4430 C.3    72  GLU72       0.1161
     81  CD         4.1360   -3.6320   -5.5130 C.2    72  GLU72       0.3649
     82  OE1        2.9230   -3.7140   -5.7910 O.co2  72  GLU72      -0.2457
     83  OE2        4.6400   -4.1490   -4.4940 O.co2  72  GLU72      -0.2457
     84  N          3.2490    0.9960   -5.0240 N.am   73  VAL73      -0.1966
     85  CA         3.2360    2.3770   -4.5600 C.3    73  VAL73       0.1727
     86  C          4.6360    2.9170   -4.8260 C.2    73  VAL73       0.2617
     87  O          5.6270    2.2170   -4.5940 O.2    73  VAL73      -0.2715
     88  CB         2.9530    2.4680   -3.0450 C.3    73  VAL73       0.0290
     89  CG1        3.0710    3.9110   -2.5790 C.3    73  VAL73       0.0023
     90  CG2        1.5690    1.9290   -2.7400 C.3    73  VAL73       0.0023
     91  N          4.7130    4.1510   -5.3170 N.am   74  GLY74      -0.1940
     92  CA         6.0000    4.7520   -5.6100 C.3    74  GLY74       0.2014
     93  C          6.2290    4.9470   -7.0980 C.2    74  GLY74       0.2639
     94  O          7.2150    5.5610   -7.5000 O.2    74  GLY74      -0.2714
     95  N          5.3170    4.4320   -7.9220 N.am   75  ASP75      -0.1957
     96  CA         5.4440    4.5540   -9.3720 C.3    75  ASP75       0.1840
     97  C          5.5130    5.9960   -9.8890 C.2    75  ASP75       0.2623
     98  O          6.1600    6.2560  -10.8990 O.2    75  ASP75      -0.2715
     99  CB         4.3020    3.8050  -10.0730 C.3    75  ASP75       0.1450
    100  CG         4.6090    2.3270  -10.2750 C.2    75  ASP75       0.3671
    101  OD1        5.6840    1.8740   -9.8280 O.co2  75  ASP75      -0.2456
    102  OD2        3.7760    1.6210  -10.8810 O.co2  75  ASP75      -0.2456
    103  N          4.8440    6.9230   -9.2100 N.am   76  GLY76      -0.1940
    104  CA         4.8960    8.3110   -9.6410 C.3    76  GLY76       0.2014
    105  C          3.6910    8.8680  -10.3750 C.2    76  GLY76       0.2638
    106  O          2.6420    8.2370  -10.4660 O.2    76  GLY76      -0.2714
    107  N          3.8520   10.0730  -10.9100 N.am   77  LYS77      -0.1977
    108  CA         2.7740   10.7350  -11.6210 C.3    77  LYS77       0.1596
    109  C          3.2560   11.5120  -12.8290 C.2    77  LYS77       0.2287
    110  O          4.4510   11.7660  -12.9910 O.2    77  LYS77      -0.2864
    111  CB         2.0340   11.7020  -10.6910 C.3    77  LYS77       0.0298
    112  CG         1.1950   11.0420   -9.6070 C.3    77  LYS77       0.0038
    113  CD         0.2750   12.0670   -8.9500 C.3    77  LYS77       0.0206
    114  CE        -0.6310   11.4280   -7.9140 C.3    77  LYS77       0.1093
    115  NZ         0.1460   10.8480   -6.7880 N.3    77  LYS77      -0.1314
    116  N          2.3030   15.0680  -14.9180 N.3    79  PHE79      -0.1241
    117  CA         1.5550   16.3180  -14.9430 C.3    79  PHE79       0.1605
    118  C          1.7080   16.9130  -16.3370 C.2    79  PHE79       0.2264
    119  O          2.8220   17.0750  -16.8250 O.2    79  PHE79      -0.2867
    120  CB         2.1020   17.3250  -13.9160 C.3    79  PHE79       0.0534
    121  CG         2.0950   16.8280  -12.4930 C.ar   79  PHE79      -0.0203
    122  CD1        3.2560   16.3320  -11.9100 C.ar   79  PHE79      -0.0042
    123  CD2        0.9280   16.8600  -11.7360 C.ar   79  PHE79      -0.0042
    124  CE1        3.2580   15.8720  -10.5860 C.ar   79  PHE79      -0.0003
    125  CE2        0.9190   16.4040  -10.4150 C.ar   79  PHE79      -0.0003
    126  CZ         2.0860   15.9100   -9.8420 C.ar   79  PHE79      -0.0000
@<TRIPOS>BOND
     1   119   118    2
     2   118   117    1
     3   117   116    1
     4   117   120    1
     5   120   121    1
     6   110   109    2
     7     1     2    1
     8   109   108    1
     9   121   122   ar
    10   121   123   ar
    11   122   124   ar
    12     2     3    1
    13     2     5    1
    14   123   125   ar
    15     3     4    2
    16   108   107    1
    17   108   111    1
    18   107   105   am
    19    98    97    2
    20   102   100   ar
    21   111   112    1
    22   124   126   ar
    23     6     5    1
    24     6     8    1
    25   106   105    2
    26     5     7    1
    27   125   126   ar
    28   105   104    1
    29   100    99    1
    30   100   101   ar
    31    99    96    1
    32    97    96    1
    33    97   103   am
    34   104   103    1
    35   112   113    1
    36    96    95    1
    37    68    69    2
    38    68    67    1
    39   113   114    1
    40    14    13    1
    41    75    76    1
    42    67    70    1
    43    67    66    1
    44    95    93   am
    45    15    13    1
    46   114   115    1
    47    70    71    1
    48     9    10    1
    49    94    93    2
    50    13    10    1
    51    78    77    2
    52    93    92    1
    53    72    71    1
    54    72    73    1
    55    10    11    1
    56    76    77    1
    57    76    79    1
    58    80    79    1
    59    80    81    1
    60    77    84   am
    61    74    73    1
    62    82    81   ar
    63    12    11    2
    64    11    16   am
    65    92    91    1
    66    81    83   ar
    67    91    86   am
    68    84    85    1
    69    86    87    2
    70    86    85    1
    71    85    88    1
    72    16    17    1
    73    59    58    2
    74    24    22   am
    75    17    18    1
    76    17    20    1
    77    19    18    2
    78    18    25   am
    79    25    26    1
    80    88    90    1
    81    88    89    1
    82    26    27    1
    83    58    57    1
    84    22    21    1
    85    22    23    2
    86    32    31    2
    87    21    20    1
    88    40    39    1
    89    40    41    1
    90    60    57    1
    91    60    61    1
    92    27    29   am
    93    27    28    2
    94    29    30    1
    95    43    41   am
    96    43    44    1
    97    57    56    1
    98    54    53   ar
    99    31    39   am
   100    31    30    1
   101    55    53   ar
   102    53    52    1
   103    41    42    2
   104    61    62   ar
   105    61    63   ar
   106    44    45    1
   107    30    33    1
   108    52    51    1
   109    62    64   ar
   110    63    65   ar
   111    47    45   am
   112    47    48    1
   113    50    49    2
   114    51    48    1
   115    45    46    2
   116    33    34    1
   117    48    49    1
   118    64    65   ar
   119    34    36   ar
   120    34    35   ar
   121    36    38   ar
   122    35    37   ar
   123    38    37   ar
