@<TRIPOS>MOLECULE
tmp/1v3vA01.pdb
 97 94 0 0 0
SMALL
GASTEIGER

@<TRIPOS>ATOM
      1  N        -15.8670   63.1200  -10.0950 N.3    52  PRO52      -0.2102
      2  CA       -14.9820   62.3230   -9.2420 C.3    52  PRO52       0.1504
      3  C        -15.7210   61.5390   -8.1570 C.2    52  PRO52       0.2575
      4  O        -15.3740   60.3940   -7.8910 O.2    52  PRO52      -0.2718
      5  CB       -14.0510   63.3760   -8.6500 C.3    52  PRO52       0.0282
      6  CG       -13.9070   64.3440   -9.7910 C.3    52  PRO52       0.0208
      7  CD       -15.3470   64.4910  -10.2460 C.3    52  PRO52       0.0893
      8  N        -16.7800   62.1220   -7.5890 N.am   53  TYR53      -0.1977
      9  CA       -17.5290   61.4500   -6.5260 C.3    53  TYR53       0.1639
     10  C        -18.1030   60.0960   -6.9450 C.2    53  TYR53       0.2290
     11  O        -18.3400   59.2360   -6.1070 O.2    53  TYR53      -0.2864
     12  CB       -18.6370   62.3530   -5.9570 C.3    53  TYR53       0.0560
     13  CG       -19.8870   62.4740   -6.8130 C.ar   53  TYR53      -0.0198
     14  CD1      -20.8570   61.4690   -6.8190 C.ar   53  TYR53      -0.0009
     15  CD2      -20.1000   63.5930   -7.6180 C.ar   53  TYR53      -0.0009
     16  CE1      -22.0070   61.5740   -7.6130 C.ar   53  TYR53       0.0417
     17  CE2      -21.2460   63.7080   -8.4110 C.ar   53  TYR53       0.0417
     18  CZ       -22.1910   62.6950   -8.4040 C.ar   53  TYR53       0.1957
     19  OH       -23.3150   62.7980   -9.1990 O.3    53  TYR53      -0.2866
     20  N        -16.3290   56.9730   -5.6230 N.3    56  ILE56      -0.1245
     21  CA       -16.5960   56.5510   -4.2500 C.3    56  ILE56       0.1561
     22  C        -18.0410   56.0860   -4.0830 C.2    56  ILE56       0.2260
     23  O        -18.2990   55.0430   -3.4770 O.2    56  ILE56      -0.2867
     24  CB       -16.3070   57.6930   -3.2250 C.3    56  ILE56       0.0252
     25  CG1      -14.8380   58.1120   -3.2920 C.3    56  ILE56       0.0019
     26  CG2      -16.6330   57.2460   -1.8070 C.3    56  ILE56       0.0019
     27  CD1      -14.5190   58.9630   -4.4780 C.3    56  ILE56       0.0001
     28  N        -23.1640   72.6590   -9.6070 N.3   128  MET128     -0.1245
     29  CA       -22.5670   72.0780   -8.4120 C.3   128  MET128      0.1570
     30  C        -21.0590   72.3190   -8.2350 C.2   128  MET128      0.2261
     31  O        -20.6350   72.7540   -7.1680 O.2   128  MET128     -0.2867
     32  CB       -22.9450   70.5990   -8.3000 C.3   128  MET128      0.0387
     33  CG       -22.5820   69.9540   -6.9710 C.3   128  MET128      0.0595
     34  SD       -20.9180   69.3290   -7.0600 S.3   128  MET128     -0.1393
     35  CE       -21.1600   67.8790   -8.0790 C.3   128  MET128      0.0692
     36  N        -12.0290   69.7710    0.2000 N.3   243  CYS243     -0.1221
     37  CA       -13.1060   69.6130   -0.7690 C.3   243  CYS243      0.1808
     38  C        -13.1860   68.1600   -1.2440 C.2   243  CYS243      0.2602
     39  O        -14.2740   67.5800   -1.3390 O.2   243  CYS243     -0.2717
     40  CB       -12.8530   70.5330   -1.9650 C.3   243  CYS243      0.0970
     41  SG       -14.1310   70.4830   -3.2200 S.3   243  CYS243     -0.0800
     42  N        -12.0230   67.5890   -1.5400 N.am  244  GLY244     -0.1942
     43  CA       -11.9400   66.2150   -2.0030 C.3   244  GLY244      0.2014
     44  C        -10.5280   65.6670   -1.8700 C.2   244  GLY244      0.2638
     45  O         -9.6230   66.3740   -1.4230 O.2   244  GLY244     -0.2714
     46  N        -10.3310   64.4100   -2.2630 N.am  245  ALA245     -0.1977
     47  CA        -9.0130   63.7730   -2.1750 C.3   245  ALA245      0.1597
     48  C         -8.8560   62.7560   -3.2980 C.2   245  ALA245      0.2287
     49  O         -8.5570   61.5790   -3.0580 O.2   245  ALA245     -0.2864
     50  CB        -8.8530   63.0940   -0.8250 C.3   245  ALA245      0.0319
     51  N         -8.7070   58.1710   -4.2960 N.3   249  TYR249     -0.1241
     52  CA        -9.9870   57.5540   -4.6540 C.3   249  TYR249      0.1605
     53  C         -9.8670   56.1310   -5.2070 C.2   249  TYR249      0.2264
     54  O        -10.8150   55.3500   -5.1250 O.2   249  TYR249     -0.2867
     55  CB       -10.7630   58.4270   -5.6490 C.3   249  TYR249      0.0534
     56  CG       -11.3300   59.7140   -5.0800 C.ar  249  TYR249     -0.0201
     57  CD1      -11.2080   60.0310   -3.7240 C.ar  249  TYR249     -0.0009
     58  CD2      -11.9920   60.6240   -5.9100 C.ar  249  TYR249     -0.0009
     59  CE1      -11.7340   61.2250   -3.2090 C.ar  249  TYR249      0.0417
     60  CE2      -12.5150   61.8160   -5.4080 C.ar  249  TYR249      0.0417
     61  CZ       -12.3840   62.1110   -4.0590 C.ar  249  TYR249      0.1957
     62  OH       -12.9090   63.2890   -3.5720 O.3   249  TYR249     -0.2866
     63  N         -8.6000   53.6820   -1.5790 N.3   252  MET252     -0.1245
     64  CA        -9.2140   53.9550   -0.2830 C.3   252  MET252      0.1570
     65  C         -8.8720   52.9110    0.7880 C.2   252  MET252      0.2261
     66  O         -9.0790   53.1530    1.9790 O.2   252  MET252     -0.2867
     67  CB       -10.7330   54.0790   -0.4280 C.3   252  MET252      0.0387
     68  CG       -11.1960   55.2770   -1.2470 C.3   252  MET252      0.0595
     69  SD       -10.7100   56.8690   -0.5370 S.3   252  MET252     -0.1393
     70  CE       -12.0040   57.1110    0.6720 C.3   252  MET252      0.0692
     71  N        -19.3340   69.8460    2.2100 N.3   275  ILE275     -0.1231
     72  CA       -20.0850   69.3240    1.0720 C.3   275  ILE275      0.1692
     73  C        -20.9700   70.4710    0.5740 C.2   275  ILE275      0.2592
     74  O        -21.5310   71.2160    1.3830 O.2   275  ILE275     -0.2718
     75  CB       -20.9380   68.0840    1.4460 C.3   275  ILE275      0.0266
     76  CG1      -21.7950   68.3690    2.6750 C.3   275  ILE275      0.0019
     77  CG2      -20.0410   66.8820    1.6790 C.3   275  ILE275      0.0020
     78  CD1      -22.5190   67.1490    3.2170 C.3   275  ILE275      0.0001
     79  N        -21.0190   70.6410   -0.7480 N.am  276  VAL276     -0.1966
     80  CA       -21.7830   71.7120   -1.3930 C.3   276  VAL276      0.1727
     81  C        -23.1890   71.8760   -0.8520 C.2   276  VAL276      0.2616
     82  O        -23.6830   72.9930   -0.6990 O.2   276  VAL276     -0.2715
     83  CB       -21.9580   71.4980   -2.9210 C.3   276  VAL276      0.0290
     84  CG1      -21.6250   72.7680   -3.6670 C.3   276  VAL276      0.0023
     85  CG2      -21.1750   70.3190   -3.4190 C.3   276  VAL276      0.0023
     86  N        -23.8240   70.7450   -0.5740 N.am  277  TYR277     -0.1974
     87  CA       -25.1930   70.7030   -0.0830 C.3   277  TYR277      0.1639
     88  C        -25.4620   71.3380    1.2840 C.2   277  TYR277      0.2290
     89  O        -26.6160   71.4420    1.6970 O.2   277  TYR277     -0.2864
     90  CB       -25.6910   69.2590   -0.1460 C.3   277  TYR277      0.0560
     91  CG       -25.3540   68.6190   -1.4760 C.ar  277  TYR277     -0.0198
     92  CD1      -25.8670   69.1360   -2.6680 C.ar  277  TYR277     -0.0009
     93  CD2      -24.4800   67.5350   -1.5520 C.ar  277  TYR277     -0.0009
     94  CE1      -25.5160   68.5940   -3.8970 C.ar  277  TYR277      0.0417
     95  CE2      -24.1230   66.9860   -2.7800 C.ar  277  TYR277      0.0417
     96  CZ       -24.6450   67.5200   -3.9470 C.ar  277  TYR277      0.1957
     97  OH       -24.3050   66.9780   -5.1650 O.3   277  TYR277     -0.2866
@<TRIPOS>BOND
     1     7     1    1
     2     7     6    1
     3     1     2    1
     4     6     5    1
     5    28    29    1
     6     2     5    1
     7     2     3    1
     8    19    18    1
     9    29    32    1
    10    29    30    1
    11    17    18   ar
    12    17    15   ar
    13    18    16   ar
    14    32    33    1
    15    30    31    2
    16     3     4    2
    17     3     8   am
    18    35    34    1
    19    15    13   ar
    20    16    14   ar
    21     8     9    1
    22    34    33    1
    23    10     9    1
    24    10    11    2
    25    14    13   ar
    26    13    12    1
    27     9    12    1
    28    58    60   ar
    29    58    56   ar
    30    55    56    1
    31    55    52    1
    32    20    21    1
    33    60    61   ar
    34    53    54    2
    35    53    52    1
    36    97    96    1
    37    56    57   ar
    38    52    51    1
    39    27    25    1
    40    21    22    1
    41    21    24    1
    42    22    23    2
    43    61    62    1
    44    61    59   ar
    45    96    94   ar
    46    96    95   ar
    47    94    92   ar
    48    57    59   ar
    49    84    83    1
    50    85    83    1
    51    48    49    2
    52    48    47    1
    53    25    24    1
    54    24    26    1
    55    41    40    1
    56    83    80    1
    57    95    93   ar
    58    92    91   ar
    59    46    47    1
    60    46    44   am
    61    47    50    1
    62    43    44    1
    63    43    42    1
    64    40    37    1
    65    44    45    2
    66    63    64    1
    67    93    91   ar
    68    42    38   am
    69    91    90    1
    70    80    81    1
    71    80    79    1
    72    39    38    2
    73    68    69    1
    74    68    67    1
    75    38    37    1
    76    81    82    2
    77    81    86   am
    78    37    36    1
    79    79    73   am
    80    86    87    1
    81    69    70    1
    82    67    64    1
    83    64    65    1
    84    90    87    1
    85    87    88    1
    86    73    72    1
    87    73    74    2
    88    65    66    2
    89    72    75    1
    90    72    71    1
    91    88    89    2
    92    75    77    1
    93    75    76    1
    94    76    78    1
