@<TRIPOS>MOLECULE
tmp/1v3xA00.pdb
 194 192 0 0 0
SMALL
GASTEIGER

@<TRIPOS>ATOM
      1  N         13.9510   10.7020   13.9510 N.3    42  HIS42      -0.1241
      2  CA        12.5040   10.6780   13.9300 C.3    42  HIS42       0.1621
      3  C         11.8910   12.0400   14.2620 C.2    42  HIS42       0.2264
      4  O         10.6920   12.2820   14.0510 O.2    42  HIS42      -0.2867
      5  CB        11.9530    9.5530   14.8170 C.3    42  HIS42       0.0745
      6  CG        11.6540    9.9560   16.2210 C.ar   42  HIS42       0.0817
      7  ND1       12.4820    9.6340   17.2740 N.ar   42  HIS42      -0.2268
      8  CD2       10.6040   10.6200   16.7570 C.ar   42  HIS42       0.1154
      9  CE1       11.9510   10.0780   18.3970 C.ar   42  HIS42       0.1986
     10  NE2       10.8150   10.6880   18.1080 N.ar   42  HIS42      -0.2212
     11  N         11.5870    4.4290   10.1260 N.3    82  LYS82      -0.1231
     12  CA        10.4630    4.7810   11.0170 C.3    82  LYS82       0.1693
     13  C          9.7980    3.5720   11.6240 C.2    82  LYS82       0.2592
     14  O          9.1360    3.6710   12.6390 O.2    82  LYS82      -0.2718
     15  CB         9.3840    5.6030   10.2980 C.3    82  LYS82       0.0285
     16  CG         9.9260    6.9300    9.7840 C.3    82  LYS82       0.0035
     17  CD         8.8450    7.7540    9.1000 C.3    82  LYS82       0.0206
     18  CE         7.9350    8.3940   10.1210 C.3    82  LYS82       0.1093
     19  NZ         7.0140    9.3970    9.4860 N.3    82  LYS82      -0.1314
     20  N          9.9360    2.4200   11.0090 N.am   83  GLU83      -0.1966
     21  CA         9.1440    1.3110   11.4940 C.3    83  GLU83       0.1733
     22  C          9.7760    0.7440   12.7560 C.2    83  GLU83       0.2617
     23  O          9.0650    0.3870   13.6960 O.2    83  GLU83      -0.2715
     24  CB         8.9530    0.2370   10.4010 C.3    83  GLU83       0.0429
     25  CG         8.2070    0.7280    9.1860 C.3    83  GLU83       0.1163
     26  CD         6.7760    1.0890    9.4190 C.2    83  GLU83       0.3649
     27  OE1        6.1820    0.7060   10.4620 O.co2  83  GLU83      -0.2457
     28  OE2        6.2130    1.6760    8.4830 O.co2  83  GLU83      -0.2457
     29  N         11.0970    0.6670   12.7920 N.am   84  THR84      -0.1937
     30  CA        11.7390    0.1630   13.9940 C.3    84  THR84       0.2028
     31  C         12.4270    1.2490   14.8340 C.2    84  THR84       0.2642
     32  O         12.8830    0.9800   15.9610 O.2    84  THR84      -0.2714
     33  CB        12.7280   -0.9110   13.6380 C.3    84  THR84       0.1808
     34  OG1       13.7330   -0.3560   12.7830 O.3    84  THR84      -0.2208
     35  CG2       12.0540   -2.0270   12.7690 C.3    84  THR84       0.0379
     36  N         12.4840    2.4670   14.2740 N.am   85  TYR85      -0.1973
     37  CA        13.3330    3.5480   14.7630 C.3    85  TYR85       0.1639
     38  C         14.7920    3.1770   14.8390 C.2    85  TYR85       0.2290
     39  O         15.5120    3.7100   15.6780 O.2    85  TYR85      -0.2864
     40  CB        12.8890    4.0470   16.1320 C.3    85  TYR85       0.0560
     41  CG        11.7560    5.0180   16.0810 C.ar   85  TYR85      -0.0198
     42  CD1       10.8620    4.9980   15.0130 C.ar   85  TYR85      -0.0009
     43  CD2       11.5510    5.9460   17.1090 C.ar   85  TYR85      -0.0009
     44  CE1        9.7800    5.8530   14.9600 C.ar   85  TYR85       0.0417
     45  CE2       10.4780    6.8310   17.0670 C.ar   85  TYR85       0.0417
     46  CZ         9.6030    6.7600   15.9650 C.ar   85  TYR85       0.1957
     47  OH         8.5120    7.5430   15.8520 O.3    85  TYR85      -0.2866
     48  N          2.7460   10.4890   30.9150 N.3   135  GLU135     -0.1245
     49  CA         2.3410    9.9420   29.6240 C.3   135  GLU135      0.1567
     50  C          1.3050   10.8210   28.8880 C.2   135  GLU135      0.2260
     51  O          1.4730   11.1620   27.7150 O.2   135  GLU135     -0.2867
     52  CB         1.8820    8.4790   29.7560 C.3   135  GLU135      0.0388
     53  CG         1.8980    7.7340   28.4320 C.3   135  GLU135      0.1160
     54  CD         1.6990    6.2210   28.5580 C.2   135  GLU135      0.3649
     55  OE1        2.2380    5.6370   29.5230 O.co2 135  GLU135     -0.2457
     56  OE2        1.0530    5.6120   27.6580 O.co2 135  GLU135     -0.2457
     57  N          8.9260   -4.7540   21.0970 N.3   162  PHE162     -0.1227
     58  CA         9.5590   -4.4170   19.8350 C.3   162  PHE162      0.1736
     59  C         11.0380   -4.6860   19.8930 C.2   162  PHE162      0.2595
     60  O         11.6510   -4.6820   20.9640 O.2   162  PHE162     -0.2718
     61  CB         9.3990   -2.9340   19.5470 C.3   162  PHE162      0.0547
     62  CG         7.9800   -2.4910   19.4090 C.ar  162  PHE162     -0.0202
     63  CD1        7.3200   -2.6040   18.1910 C.ar  162  PHE162     -0.0042
     64  CD2        7.3030   -1.9600   20.4900 C.ar  162  PHE162     -0.0042
     65  CE1        6.0030   -2.1960   18.0730 C.ar  162  PHE162     -0.0003
     66  CE2        5.9950   -1.5550   20.3770 C.ar  162  PHE162     -0.0003
     67  CZ         5.3430   -1.6610   19.1800 C.ar  162  PHE162     -0.0000
     68  N         11.6100   -4.8250   18.7180 N.am  163  ILE163     -0.1980
     69  CA        13.0210   -5.0320   18.4890 C.3   163  ILE163      0.1595
     70  C         13.9720   -3.9550   19.1020 C.2   163  ILE163      0.2287
     71  O         13.8000   -2.7620   18.8950 O.2   163  ILE163     -0.2864
     72  CB        13.1750   -5.1240   16.9760 C.3   163  ILE163      0.0276
     73  CG1       12.0350   -5.9890   16.4120 C.3   163  ILE163      0.0022
     74  CG2       14.5380   -5.6880   16.5700 C.3   163  ILE163      0.0022
     75  CD1       10.5610   -5.2600   16.2400 C.3   163  ILE163      0.0001
     76  N         10.8700    8.6460   33.9890 N.3   179  ASP179     -0.1225
     77  CA        11.1750    8.2880   32.6310 C.3   179  ASP179      0.1805
     78  C         11.2240    9.5540   31.8010 C.2   179  ASP179      0.2598
     79  O         10.8560   10.6300   32.2560 O.2   179  ASP179     -0.2718
     80  CB        10.1180    7.3470   32.0800 C.3   179  ASP179      0.1424
     81  CG        10.6000    6.5530   30.8690 C.2   179  ASP179      0.3668
     82  OD1       11.7930    6.6890   30.5040 O.co2 179  ASP179     -0.2456
     83  OD2        9.8430    5.7800   30.2220 O.co2 179  ASP179     -0.2456
     84  N         11.8000    9.4280   30.6200 N.am  180  ALA180     -0.1966
     85  CA        11.6690   10.4520   29.6280 C.3   180  ALA180      0.1728
     86  C         10.2640   10.2590   29.0520 C.2   180  ALA180      0.2616
     87  O          9.6300    9.2670   29.3200 O.2   180  ALA180     -0.2715
     88  CB        12.7490   10.2950   28.5720 C.3   180  ALA180      0.0334
     89  N          9.7950   11.2180   28.2690 N.am  181  CYS181     -0.1954
     90  CA         8.4850   11.1570   27.6940 C.3   181  CYS181      0.1843
     91  C          8.4530   11.9670   26.3910 C.2   181  CYS181      0.2625
     92  O          9.4750   12.4510   25.8990 O.2   181  CYS181     -0.2714
     93  CB         7.4060   11.6480   28.7100 C.3   181  CYS181      0.0997
     94  SG         5.7280   11.0760   28.2890 S.3   181  CYS181     -0.0797
     95  N          7.2590   12.0970   25.8340 N.am  182  GLN182     -0.1977
     96  CA         7.0500   12.7440   24.5420 C.3   182  GLN182      0.1601
     97  C          7.6090   14.1750   24.5960 C.2   182  GLN182      0.2287
     98  O          7.3020   14.9230   25.5290 O.2   182  GLN182     -0.2864
     99  CB         5.5280   12.7600   24.2600 C.3   182  GLN182      0.0394
    100  CG         5.2060   13.5600   23.0140 C.3   182  GLN182      0.0908
    101  CD         3.7480   13.5000   22.6730 C.2   182  GLN182      0.2608
    102  OE1        3.1780   14.5260   22.2630 O.2   182  GLN182     -0.2717
    103  NE2        3.1490   12.3530   22.7080 N.am  182  GLN182     -0.0878
    104  N         12.3730   13.6290   23.0940 N.3   185  SER185     -0.1217
    105  CA        13.0080   12.8740   22.0120 C.3   185  SER185      0.1889
    106  C         14.0130   13.7530   21.3160 C.2   185  SER185      0.2288
    107  O         13.7410   14.9380   21.1740 O.2   185  SER185     -0.2866
    108  CB        11.9700   12.4090   20.9880 C.3   185  SER185      0.2089
    109  OG        11.0500   11.5500   21.6270 O.3   185  SER185     -0.2183
    110  N         17.5570   10.4700   23.3300 N.3   203  VAL203     -0.1231
    111  CA        16.2010   10.0560   23.6500 C.3   203  VAL203      0.1692
    112  C         15.4700    9.6120   22.3770 C.2   203  VAL203      0.2593
    113  O         15.3460   10.3890   21.4110 O.2   203  VAL203     -0.2718
    114  CB        15.4190   11.1570   24.4250 C.3   203  VAL203      0.0266
    115  CG1       14.0090   10.6600   24.7660 C.3   203  VAL203      0.0020
    116  CG2       16.1710   11.5300   25.7280 C.3   203  VAL203      0.0020
    117  N         15.0390    8.3480   22.3680 N.am  204  SER204     -0.1938
    118  CA        14.5210    7.8010   21.1290 C.3   204  SER204      0.2055
    119  C         13.0390    7.4130   21.1910 C.2   204  SER204      0.2643
    120  O         12.2310    8.0190   20.4960 O.2   204  SER204     -0.2714
    121  CB        15.4000    6.6470   20.6450 C.3   204  SER204      0.2130
    122  OG        15.0600    6.2830   19.3390 O.3   204  SER204     -0.2179
    123  N         12.6900    6.3950   21.9760 N.am  205  TRP205     -0.1959
    124  CA        11.2780    5.9970   22.0840 C.3   205  TRP205      0.1771
    125  C         11.0780    5.2080   23.3550 C.2   205  TRP205      0.2620
    126  O         12.0420    4.7840   23.9990 O.2   205  TRP205     -0.2715
    127  CB        10.8270    5.1430   20.8720 C.3   205  TRP205      0.0590
    128  CG        11.6240    3.8480   20.6550 C.ar  205  TRP205      0.0006
    129  CD1       12.7990    3.7150   19.9440 C.ar  205  TRP205      0.0946
    130  CD2       11.2780    2.5140   21.1030 C.ar  205  TRP205      0.0152
    131  NE1       13.1820    2.4030   19.9200 N.ar  205  TRP205     -0.2442
    132  CE2       12.2790    1.6460   20.6360 C.ar  205  TRP205      0.0810
    133  CE3       10.2090    1.9720   21.8470 C.ar  205  TRP205      0.0012
    134  CZ2       12.2540    0.2570   20.8820 C.ar  205  TRP205      0.0191
    135  CZ3       10.1980    0.6030   22.1300 C.ar  205  TRP205      0.0001
    136  CH2       11.2010   -0.2440   21.6300 C.ar  205  TRP205      0.0015
    137  N          9.8090    4.9980   23.7010 N.am  206  GLY206     -0.1940
    138  CA         9.4240    4.1070   24.7820 C.3   206  GLY206      0.2014
    139  C          8.0270    3.6200   24.5140 C.2   206  GLY206      0.2639
    140  O          7.3150    4.1960   23.6950 O.2   206  GLY206     -0.2714
    141  N          7.6180    2.5730   25.2110 N.am  207  GLU207     -0.1963
    142  CA         6.2070    2.1220   25.1300 C.3   207  GLU207      0.1733
    143  C          5.4050    2.8870   26.1880 C.2   207  GLU207      0.2617
    144  O          5.3310    2.4680   27.3420 O.2   207  GLU207     -0.2715
    145  CB         6.1250    0.6030   25.3110 C.3   207  GLU207      0.0429
    146  CG         6.7000   -0.1980   24.1520 C.3   207  GLU207      0.1163
    147  CD         6.7070   -1.7120   24.4170 C.2   207  GLU207      0.3649
    148  OE1        7.7950   -2.2920   24.6290 O.co2 207  GLU207     -0.2457
    149  OE2        5.6140   -2.3380   24.4380 O.co2 207  GLU207     -0.2457
    150  N          4.8550    4.0420   25.8160 N.am  208  GLY208     -0.1940
    151  CA         4.3640    4.9830   26.8120 C.3   208  GLY208      0.2014
    152  C          5.4890    5.7590   27.5020 C.2   208  GLY208      0.2639
    153  O          6.5050    6.0990   26.8700 O.2   208  GLY208     -0.2714
    154  N          5.3220    6.0420   28.7920 N.am  209  CYS209     -0.1967
    155  CA         6.2920    6.7890   29.5600 C.3   209  CYS209      0.1712
    156  C          6.2770    6.2970   30.9940 C.2   209  CYS209      0.2296
    157  O          5.3070    6.5020   31.7310 O.2   209  CYS209     -0.2864
    158  CB         5.9610    8.2870   29.5640 C.3   209  CYS209      0.0983
    159  SG         5.9510    9.1110   27.9740 S.3   209  CYS209     -0.0798
    160  N          6.0470    3.3330   32.0890 N.3   211  ARG211     -0.1245
    161  CA         5.1450    2.1890   32.2930 C.3   211  ARG211      0.1563
    162  C          5.8730    1.0980   33.0430 C.2   211  ARG211      0.2260
    163  O          7.1130    0.8700   32.8490 O.2   211  ARG211     -0.2867
    164  CB         4.6260    1.5980   30.9790 C.3   211  ARG211      0.0307
    165  CG         3.8770    2.5490   30.0670 C.3   211  ARG211      0.0489
    166  CD         2.5250    2.0670   29.5530 C.3   211  ARG211      0.2205
    167  NE         2.4810    2.0240   28.0910 N.pl3 211  ARG211     -0.0865
    168  CZ         1.5070    2.5180   27.3210 C.cat 211  ARG211      0.5346
    169  NH1        0.4570    3.1410   27.8480 N.pl3 211  ARG211      0.1354
    170  NH2        1.5910    2.4010   25.9970 N.pl3 211  ARG211      0.1354
    171  N         13.2120    3.1680   29.0910 N.3   216  GLY216     -0.1210
    172  CA        13.4670    4.1740   28.0590 C.3   216  GLY216      0.1956
    173  C         14.4640    3.6380   27.0380 C.2   216  GLY216      0.2612
    174  O         15.5090    3.0650   27.4140 O.2   216  GLY216     -0.2717
    175  N         14.1300    3.7510   25.7630 N.am  217  ILE217     -0.1965
    176  CA        15.0600    3.2990   24.7390 C.3   217  ILE217      0.1727
    177  C         15.8040    4.4960   24.0920 C.2   217  ILE217      0.2616
    178  O         15.1880    5.5200   23.7080 O.2   217  ILE217     -0.2715
    179  CB        14.3630    2.4210   23.6390 C.3   217  ILE217      0.0290
    180  CG1       13.2440    1.4840   24.2360 C.3   217  ILE217      0.0022
    181  CG2       15.4430    1.6900   22.7500 C.3   217  ILE217      0.0023
    182  CD1       13.7130    0.5170   25.2850 C.3   217  ILE217      0.0001
    183  N         17.1090    4.3310   23.9480 N.am  218  TYR218     -0.1974
    184  CA        17.9770    5.4510   23.5660 C.3   218  TYR218      0.1639
    185  C         18.8330    4.9750   22.4310 C.2   218  TYR218      0.2290
    186  O         19.2010    3.8020   22.3720 O.2   218  TYR218     -0.2864
    187  CB        18.8770    5.8870   24.7270 C.3   218  TYR218      0.0560
    188  CG        18.1350    6.4730   25.8910 C.ar  218  TYR218     -0.0198
    189  CD1       18.0940    7.8550   26.0940 C.ar  218  TYR218     -0.0009
    190  CD2       17.4640    5.6360   26.8130 C.ar  218  TYR218     -0.0009
    191  CE1       17.4140    8.3760   27.1480 C.ar  218  TYR218      0.0417
    192  CE2       16.7790    6.1580   27.8930 C.ar  218  TYR218      0.0417
    193  CZ        16.7460    7.5250   28.0660 C.ar  218  TYR218      0.1957
    194  OH        16.0260    8.0360   29.1290 O.3   218  TYR218     -0.2866
@<TRIPOS>BOND
     1    28    26   ar
     2    17    16    1
     3    17    18    1
     4    25    26    1
     5    25    24    1
     6    26    27   ar
     7    19    18    1
     8    16    15    1
     9    11    12    1
    10    15    12    1
    11    24    21    1
    12    20    21    1
    13    20    13   am
    14    12    13    1
    15    21    22    1
    16    13    14    2
    17    22    29   am
    18    22    23    2
    19    35    33    1
    20    34    33    1
    21    29    30    1
    22    33    30    1
    23     2     1    1
    24     2     3    1
    25     2     5    1
    26    30    31    1
    27     4     3    2
    28    36    37    1
    29    36    31   am
    30    37    38    1
    31    37    40    1
    32     5     6    1
    33    31    32    2
    34    38    39    2
    35    44    42   ar
    36    44    46   ar
    37    42    41   ar
    38    47    46    1
    39    46    45   ar
    40    41    40    1
    41    41    43   ar
    42     6     8   ar
    43     6     7   ar
    44    75    73    1
    45    73    72    1
    46    74    72    1
    47     8    10   ar
    48    72    69    1
    49    45    43   ar
    50     7     9   ar
    51    65    63   ar
    52    65    67   ar
    53    10     9   ar
    54    63    62   ar
    55    69    68    1
    56    69    70    1
    57    68    59   am
    58    71    70    2
    59    67    66   ar
    60   122   121    1
    61    62    61    1
    62    62    64   ar
    63    61    58    1
    64    58    59    1
    65    58    57    1
    66    59    60    2
    67   131   129   ar
    68   131   132   ar
    69   129   128   ar
    70    66    64   ar
    71   120   119    2
    72   132   134   ar
    73   132   130   ar
    74   121   118    1
    75   128   127    1
    76   128   130   ar
    77   127   124    1
    78   134   136   ar
    79   108   109    1
    80   108   105    1
    81   130   133   ar
    82   118   119    1
    83   118   117    1
    84   107   106    2
    85   119   123   am
    86   106   105    1
    87   113   112    2
    88   136   135   ar
    89   133   135   ar
    90   123   124    1
    91   105   104    1
    92   124   125    1
    93   102   101    2
    94   117   112   am
    95   186   185    2
    96   112   111    1
    97   185   184    1
    98   101   103   am
    99   101   100    1
   100   181   179    1
   101   100    99    1
   102   110   111    1
   103   125   137   am
   104   125   126    2
   105   184   183    1
   106   184   187    1
   107   179   180    1
   108   179   176    1
   109   111   114    1
   110   140   139    2
   111   137   138    1
   112   178   177    2
   113   183   177   am
   114   177   176    1
   115   146   147    1
   116   146   145    1
   117   180   182    1
   118    99    96    1
   119   147   149   ar
   120   147   148   ar
   121   114   115    1
   122   114   116    1
   123   139   138    1
   124   139   141   am
   125    96    97    1
   126    96    95    1
   127    97    98    2
   128   187   188    1
   129   176   175    1
   130   142   141    1
   131   142   145    1
   132   142   143    1
   133   175   173   am
   134   150   143   am
   135   150   151    1
   136    95    91   am
   137   188   189   ar
   138   188   190   ar
   139    92    91    2
   140   170   168    1
   141   189   191   ar
   142   143   144    2
   143    91    90    1
   144   151   152    1
   145   190   192   ar
   146   153   152    2
   147   173   174    2
   148   173   172    1
   149   191   193   ar
   150   168   169    1
   151   168   167    2
   152   152   154   am
   153    56    54   ar
   154    90    89    1
   155    90    93    1
   156    51    50    2
   157   192   193   ar
   158   159    94    1
   159   159   158    1
   160   172   171    1
   161   193   194    1
   162   167   166    1
   163    89    86   am
   164    94    93    1
   165    53    54    1
   166    53    52    1
   167    54    55   ar
   168    88    85    1
   169   154   155    1
   170    50    49    1
   171    86    87    2
   172    86    85    1
   173   166   165    1
   174   155   158    1
   175   155   156    1
   176    49    52    1
   177    49    48    1
   178    85    84    1
   179   165   164    1
   180    83    81   ar
   181    82    81   ar
   182    84    78   am
   183    81    80    1
   184   164   161    1
   185   156   157    2
   186    78    79    2
   187    78    77    1
   188    80    77    1
   189   160   161    1
   190   161   162    1
   191    77    76    1
   192   163   162    2
