@<TRIPOS>MOLECULE
tmp/1v40C01.pdb
 163 157 0 0 0
SMALL
GASTEIGER

@<TRIPOS>ATOM
      1  N         -8.0230   37.7160   -0.1280 N.3     7  TYR7       -0.1227
      2  CA        -6.6270   37.8000   -0.5300 C.3     7  TYR7        0.1736
      3  C         -5.8810   36.6740    0.1790 C.2     7  TYR7        0.2595
      4  O         -6.4610   35.9350    0.9710 O.2     7  TYR7       -0.2718
      5  CB        -6.0340   39.1520   -0.1150 C.3     7  TYR7        0.0548
      6  CG        -4.7050   39.4820   -0.7700 C.ar    7  TYR7       -0.0200
      7  CD1       -4.6110   39.6640   -2.1500 C.ar    7  TYR7       -0.0009
      8  CD2       -3.5480   39.6550    0.0010 C.ar    7  TYR7       -0.0009
      9  CE1       -3.4020   40.0160   -2.7580 C.ar    7  TYR7        0.0417
     10  CE2       -2.3300   40.0080   -0.5980 C.ar    7  TYR7        0.0417
     11  CZ        -2.2700   40.1920   -1.9730 C.ar    7  TYR7        0.1957
     12  OH        -1.0880   40.5770   -2.5620 O.3     7  TYR7       -0.2866
     13  N         -4.6010   36.5330   -0.1250 N.am    8  PHE8       -0.1976
     14  CA        -3.7780   35.5200    0.5130 C.3     8  PHE8        0.1639
     15  C         -3.4960   35.9690    1.9290 C.2     8  PHE8        0.2290
     16  O         -3.8110   37.1040    2.3050 O.2     8  PHE8       -0.2864
     17  CB        -2.4520   35.3650   -0.2300 C.3     8  PHE8        0.0560
     18  CG        -2.5940   34.7690   -1.5980 C.ar    8  PHE8       -0.0200
     19  CD1       -2.2590   35.5060   -2.7250 C.ar    8  PHE8       -0.0042
     20  CD2       -3.1030   33.4830   -1.7600 C.ar    8  PHE8       -0.0042
     21  CE1       -2.4340   34.9730   -4.0030 C.ar    8  PHE8       -0.0003
     22  CE2       -3.2860   32.9410   -3.0370 C.ar    8  PHE8       -0.0003
     23  CZ        -2.9520   33.6850   -4.1550 C.ar    8  PHE8       -0.0000
     24  N         -1.2860   37.4420    3.6400 N.3    10  MET10      -0.1245
     25  CA        -0.1180   38.3100    3.5820 C.3    10  MET10       0.1570
     26  C         -0.5820   39.7550    3.4560 C.2    10  MET10       0.2261
     27  O         -1.7620   40.0080    3.1870 O.2    10  MET10      -0.2867
     28  CB         0.7920   37.9290    2.4050 C.3    10  MET10       0.0387
     29  CG         0.0930   37.6790    1.0870 C.3    10  MET10       0.0595
     30  SD         1.2790   37.2120   -0.2240 S.3    10  MET10      -0.1393
     31  CE         1.6120   35.5110    0.1580 C.3    10  MET10       0.0692
     32  N          0.7510   42.1310    1.2810 N.3    12  GLY12      -0.1210
     33  CA         0.6580   42.2770   -0.1610 C.3    12  GLY12       0.1956
     34  C         -0.1210   43.4780   -0.6510 C.2    12  GLY12       0.2611
     35  O         -0.0300   44.5710   -0.0830 O.2    12  GLY12      -0.2717
     36  N         -0.8960   43.2590   -1.7090 N.am   13  ARG13      -0.1979
     37  CA        -1.6960   44.3030   -2.3390 C.3    13  ARG13       0.1597
     38  C         -3.0200   44.5930   -1.6520 C.2    13  ARG13       0.2287
     39  O         -3.7470   45.5040   -2.0470 O.2    13  ARG13      -0.2864
     40  CB        -1.9430   43.9400   -3.8070 C.3    13  ARG13       0.0334
     41  CG        -0.6970   44.0830   -4.6610 C.3    13  ARG13       0.0492
     42  CD        -0.9370   43.7210   -6.1180 C.3    13  ARG13       0.2205
     43  NE         0.1850   44.1680   -6.9450 N.pl3  13  ARG13      -0.0865
     44  CZ         0.3680   45.4270   -7.3350 C.cat  13  ARG13       0.5346
     45  NH1       -0.5010   46.3680   -6.9850 N.pl3  13  ARG13       0.1354
     46  NH2        1.4390   45.7490   -8.0530 N.pl3  13  ARG13       0.1354
     47  N         -2.8660   28.9720   -0.3730 N.3    35  GLN35      -0.1245
     48  CA        -2.5570   28.7900   -1.7830 C.3    35  GLN35       0.1566
     49  C         -3.3970   27.6990   -2.4400 C.2    35  GLN35       0.2260
     50  O         -3.9360   27.8930   -3.5260 O.2    35  GLN35      -0.2867
     51  CB        -1.0650   28.4680   -1.9570 C.3    35  GLN35       0.0367
     52  CG        -0.1550   29.6660   -1.7650 C.3    35  GLN35       0.0905
     53  CD        -0.2550   30.6650   -2.9070 C.2    35  GLN35       0.2608
     54  OE1        0.1930   31.8100   -2.7870 O.2    35  GLN35      -0.2717
     55  NE2       -0.8330   30.2340   -4.0260 N.am   35  GLN35      -0.0878
     56  N         -6.6940   28.7020   -3.8310 N.3    38  TRP38      -0.1241
     57  CA        -6.6950   29.7490   -4.8460 C.3    38  TRP38       0.1605
     58  C         -7.3070   29.3200   -6.1880 C.2    38  TRP38       0.2264
     59  O         -8.1880   30.0030   -6.7150 O.2    38  TRP38      -0.2867
     60  CB        -5.2620   30.2600   -5.0610 C.3    38  TRP38       0.0550
     61  CG        -5.1180   31.3350   -6.1100 C.ar   38  TRP38       0.0003
     62  CD1       -4.0690   31.4970   -6.9650 C.ar   38  TRP38       0.0946
     63  CD2       -6.0430   32.3930   -6.4080 C.ar   38  TRP38       0.0152
     64  NE1       -4.2830   32.5800   -7.7810 N.ar   38  TRP38      -0.2442
     65  CE2       -5.4850   33.1500   -7.4620 C.ar   38  TRP38       0.0810
     66  CE3       -7.2890   32.7750   -5.8890 C.ar   38  TRP38       0.0012
     67  CZ2       -6.1290   34.2680   -8.0130 C.ar   38  TRP38       0.0191
     68  CZ3       -7.9320   33.8870   -6.4360 C.ar   38  TRP38       0.0001
     69  CH2       -7.3480   34.6180   -7.4870 C.ar   38  TRP38       0.0015
     70  N          3.0660   52.2670   -6.8890 N.3    95  ASP95      -0.1239
     71  CA         2.6160   50.9800   -7.4150 C.3    95  ASP95       0.1674
     72  C          3.3950   50.5890   -8.6740 C.2    95  ASP95       0.2266
     73  O          3.7050   49.4190   -8.8750 O.2    95  ASP95      -0.2867
     74  CB         1.1160   51.0290   -7.7110 C.3    95  ASP95       0.1410
     75  CG         0.4920   49.6510   -7.7870 C.2    95  ASP95       0.3668
     76  OD1        0.7270   48.8340   -6.8680 O.co2  95  ASP95      -0.2456
     77  OD2       -0.2460   49.3910   -8.7550 O.co2  95  ASP95      -0.2456
     78  N          6.5900   49.0990   -7.4010 N.3    98  MET98      -0.1245
     79  CA         6.3710   47.7960   -6.7730 C.3    98  MET98       0.1570
     80  C          6.1140   46.7280   -7.8360 C.2    98  MET98       0.2261
     81  O          6.5360   45.5840   -7.6850 O.2    98  MET98      -0.2867
     82  CB         5.1860   47.8500   -5.8080 C.3    98  MET98       0.0387
     83  CG         5.3800   48.7970   -4.6270 C.3    98  MET98       0.0595
     84  SD         6.8670   48.4220   -3.6530 S.3    98  MET98      -0.1393
     85  CE         6.3820   46.8920   -2.8450 C.3    98  MET98       0.0692
     86  N          7.9380   39.2800   -8.4210 N.3   103  TRP103     -0.1227
     87  CA         7.3510   38.5630   -7.3000 C.3   103  TRP103      0.1737
     88  C          7.0470   37.1000   -7.6200 C.2   103  TRP103      0.2595
     89  O          7.2070   36.2250   -6.7680 O.2   103  TRP103     -0.2718
     90  CB         6.0610   39.2480   -6.8440 C.3   103  TRP103      0.0564
     91  CG         6.2120   40.7060   -6.5360 C.ar  103  TRP103      0.0003
     92  CD1        5.8260   41.7580   -7.3150 C.ar  103  TRP103      0.0946
     93  CD2        6.7910   41.2710   -5.3590 C.ar  103  TRP103      0.0152
     94  NE1        6.1270   42.9460   -6.6950 N.ar  103  TRP103     -0.2442
     95  CE2        6.7240   42.6750   -5.4890 C.ar  103  TRP103      0.0810
     96  CE3        7.3670   40.7280   -4.2010 C.ar  103  TRP103      0.0012
     97  CZ2        7.2050   43.5440   -4.5070 C.ar  103  TRP103      0.0191
     98  CZ3        7.8460   41.5910   -3.2250 C.ar  103  TRP103      0.0001
     99  CH2        7.7640   42.9810   -3.3850 C.ar  103  TRP103      0.0015
    100  N          6.6120   36.8450   -8.8490 N.am  104  ALA104     -0.1980
    101  CA         6.2540   35.4960   -9.2810 C.3   104  ALA104      0.1597
    102  C          7.4270   34.5890   -9.6710 C.2   104  ALA104      0.2287
    103  O          7.3540   33.3800   -9.4800 O.2   104  ALA104     -0.2864
    104  CB         5.2660   35.5740  -10.4360 C.3   104  ALA104      0.0319
    105  N         15.5840   35.8280   -9.4170 N.3   111  LYS111     -0.1245
    106  CA        14.6820   36.7220   -8.6950 C.3   111  LYS111      0.1561
    107  C         15.4620   37.6050   -7.7280 C.2   111  LYS111      0.2260
    108  O         15.3230   38.8290   -7.7320 O.2   111  LYS111     -0.2867
    109  CB        13.6420   35.9060   -7.9210 C.3   111  LYS111      0.0271
    110  CG        12.6630   36.7350   -7.1010 C.3   111  LYS111      0.0035
    111  CD        11.7140   35.8350   -6.3240 C.3   111  LYS111      0.0206
    112  CE        10.7540   36.6410   -5.4640 C.3   111  LYS111      0.1093
    113  NZ         9.7730   35.7690   -4.7540 N.3   111  LYS111     -0.1314
    114  N         -0.0440   54.2140    1.8140 N.3   151  TYR151     -0.1241
    115  CA         0.5830   53.4280    0.7730 C.3   151  TYR151      0.1605
    116  C          2.0980   53.5080    0.8240 C.2   151  TYR151      0.2264
    117  O          2.7760   52.5210    0.5700 O.2   151  TYR151     -0.2867
    118  CB         0.0750   53.8480   -0.6030 C.3   151  TYR151      0.0534
    119  CG         0.1180   52.7010   -1.5770 C.ar  151  TYR151     -0.0201
    120  CD1       -0.4380   51.4710   -1.2370 C.ar  151  TYR151     -0.0009
    121  CD2        0.7160   52.8330   -2.8280 C.ar  151  TYR151     -0.0009
    122  CE1       -0.3980   50.3930   -2.1160 C.ar  151  TYR151      0.0417
    123  CE2        0.7580   51.7610   -3.7180 C.ar  151  TYR151      0.0417
    124  CZ         0.1990   50.5500   -3.3530 C.ar  151  TYR151      0.1957
    125  OH         0.2330   49.4850   -4.2140 O.3   151  TYR151     -0.2866
    126  N          3.2090   51.2650    3.6200 N.3   154  ILE154     -0.1231
    127  CA         3.0480   49.8590    3.2850 C.3   154  ILE154      0.1692
    128  C          4.1030   49.4060    2.2720 C.2   154  ILE154      0.2592
    129  O          4.7630   48.3860    2.4650 O.2   154  ILE154     -0.2718
    130  CB         1.6200   49.5940    2.7440 C.3   154  ILE154      0.0266
    131  CG1        0.6190   49.6720    3.9090 C.3   154  ILE154      0.0019
    132  CG2        1.5480   48.2210    2.0910 C.3   154  ILE154      0.0020
    133  CD1       -0.8470   49.7880    3.4880 C.3   154  ILE154      0.0001
    134  N          4.2720   50.1680    1.1970 N.am  155  CYS155     -0.1970
    135  CA         5.2680   49.8120    0.2020 C.3   155  CYS155      0.1712
    136  C          6.6690   49.7900    0.8230 C.2   155  CYS155      0.2296
    137  O          7.4090   48.8220    0.6420 O.2   155  CYS155     -0.2864
    138  CB         5.2220   50.7930   -0.9770 C.3   155  CYS155      0.0983
    139  SG         3.7360   50.6090   -2.0210 S.3   155  CYS155     -0.0798
    140  N          7.6740   46.7470    3.0050 N.3   158  THR158     -0.1218
    141  CA         8.0960   45.5730    2.2630 C.3   158  THR158      0.1862
    142  C          9.4700   45.7410    1.6180 C.2   158  THR158      0.2287
    143  O         10.2970   44.8270    1.6750 O.2   158  THR158     -0.2866
    144  CB         7.0530   45.1910    1.1970 C.3   158  THR158      0.1770
    145  OG1        5.9020   44.6380    1.8570 O.3   158  THR158     -0.2211
    146  CG2        7.6130   44.1540    0.2340 C.3   158  THR158      0.0375
    147  N          5.7530   37.4870    6.1590 N.3   197  LYS197     -0.1231
    148  CA         6.9330   38.0780    5.5410 C.3   197  LYS197      0.1693
    149  C          6.5400   39.2170    4.6090 C.2   197  LYS197      0.2591
    150  O          7.0620   40.3330    4.7110 O.2   197  LYS197     -0.2718
    151  CB         7.7150   37.0310    4.7480 C.3   197  LYS197      0.0285
    152  CG         9.1450   37.4520    4.3980 C.3   197  LYS197      0.0035
    153  CD         9.9450   37.6830    5.6750 C.3   197  LYS197      0.0206
    154  CE        11.4380   37.7490    5.3930 C.3   197  LYS197      0.1093
    155  NZ        12.2270   38.0870    6.6170 N.3   197  LYS197     -0.1314
    156  N          5.6130   38.9330    3.7030 N.am  198  LEU198     -0.1980
    157  CA         5.1650   39.9280    2.7350 C.3   198  LEU198      0.1596
    158  C          3.7050   40.3510    2.9170 C.2   198  LEU198      0.2287
    159  O          3.2530   41.2370    2.1630 O.2   198  LEU198     -0.2864
    160  CB         5.3860   39.3780    1.3270 C.3   198  LEU198      0.0297
    161  CG         6.8460   38.9890    1.0590 C.3   198  LEU198      0.0022
    162  CD1        6.9760   38.2840   -0.2890 C.3   198  LEU198      0.0001
    163  CD2        7.7050   40.2400    1.1010 C.3   198  LEU198      0.0001
@<TRIPOS>BOND
     1   104   101    1
     2   102   103    2
     3   102   101    1
     4   105   106    1
     5   101   100    1
     6    73    72    2
     7   100    88   am
     8    77    75   ar
     9   106   109    1
    10   106   107    1
    11    72    71    1
    12    86    87    1
    13    46    44    1
    14    67    69   ar
    15    67    65   ar
    16   109   110    1
    17    80    81    2
    18    80    79    1
    19    75    74    1
    20    75    76   ar
    21    64    65   ar
    22    64    62   ar
    23   108   107    2
    24    74    71    1
    25    88    87    1
    26    88    89    2
    27    69    68   ar
    28    65    63   ar
    29    71    70    1
    30    78    79    1
    31    44    45    1
    32    44    43    2
    33    92    94   ar
    34    92    91   ar
    35    87    90    1
    36   110   111    1
    37    62    61   ar
    38    43    42    1
    39    90    91    1
    40    79    82    1
    41    59    58    2
    42    94    95   ar
    43    91    93   ar
    44    68    66   ar
    45    63    61   ar
    46    63    66   ar
    47   111   112    1
    48    58    57    1
    49    42    41    1
    50    61    60    1
    51    82    83    1
    52    95    93   ar
    53    95    97   ar
    54   112   113    1
    55    93    96   ar
    56    60    57    1
    57    57    56    1
    58    41    40    1
    59    83    84    1
    60    97    99   ar
    61   125   124    1
    62    96    98   ar
    63    23    21   ar
    64    23    22   ar
    65    55    53   am
    66    21    19   ar
    67    40    37    1
    68   123   124   ar
    69   123   121   ar
    70    84    85    1
    71    50    49    2
    72    99    98   ar
    73   124   122   ar
    74    22    20   ar
    75    53    54    2
    76    53    52    1
    77   121   119   ar
    78     9     7   ar
    79     9    11   ar
    80    19    18   ar
    81    12    11    1
    82    49    48    1
    83    37    36    1
    84    37    38    1
    85     7     6   ar
    86   122   120   ar
    87    39    38    2
    88   139   138    1
    89    11    10   ar
    90    51    48    1
    91    51    52    1
    92    48    47    1
    93    20    18   ar
    94    36    34   am
    95    18    17    1
    96   119   120   ar
    97   119   118    1
    98   138   135    1
    99     6     5    1
   100     6     8   ar
   101    34    33    1
   102    34    35    2
   103   118   115    1
   104    10     8   ar
   105     2     1    1
   106     2     5    1
   107     2     3    1
   108   162   161    1
   109    17    14    1
   110    30    31    1
   111    30    29    1
   112    33    32    1
   113    13     3   am
   114    13    14    1
   115     3     4    2
   116   135   136    1
   117   135   134    1
   118   146   144    1
   119    14    15    1
   120   117   116    2
   121   137   136    2
   122   115   116    1
   123   115   114    1
   124   161   163    1
   125   161   160    1
   126    29    28    1
   127   144   145    1
   128   144   141    1
   129   134   128   am
   130   160   157    1
   131   142   143    2
   132   142   141    1
   133    15    16    2
   134   132   130    1
   135   159   158    2
   136   141   140    1
   137   128   129    2
   138   128   127    1
   139    28    25    1
   140   157   158    1
   141   157   156    1
   142   130   127    1
   143   130   131    1
   144    27    26    2
   145   127   126    1
   146    26    25    1
   147   133   131    1
   148    25    24    1
   149   156   149   am
   150   152   151    1
   151   152   153    1
   152   149   150    2
   153   149   148    1
   154   151   148    1
   155   154   153    1
   156   154   155    1
   157   148   147    1
