@<TRIPOS>MOLECULE
tmp/1v41A00.pdb
 103 97 0 0 0
SMALL
GASTEIGER

@<TRIPOS>ATOM
      1  N         48.7730   42.6120   28.4200 N.3   115  ALA115     -0.1231
      2  CA        48.5900   43.7620   27.5420 C.3   115  ALA115      0.1694
      3  C         49.9710   44.1470   27.0340 C.2   115  ALA115      0.2592
      4  O         50.7890   44.7010   27.7540 O.2   115  ALA115     -0.2718
      5  CB        47.9700   44.8900   28.3210 C.3   115  ALA115      0.0304
      6  N         50.2560   43.8450   25.7910 N.am  116  ALA116     -0.1966
      7  CA        51.5900   44.1360   25.3160 C.3   116  ALA116      0.1728
      8  C         51.5950   45.3210   24.4190 C.2   116  ALA116      0.2616
      9  O         50.5890   45.9970   24.2690 O.2   116  ALA116     -0.2715
     10  CB        52.1250   42.9410   24.5600 C.3   116  ALA116      0.0334
     11  N         52.7750   45.5870   23.8760 N.am  117  GLY117     -0.1955
     12  CA        52.9580   46.6330   22.8930 C.3   117  GLY117      0.1869
     13  C         52.9300   45.8840   21.5620 C.2   117  GLY117      0.2309
     14  O         53.2110   44.6770   21.5270 O.2   117  GLY117     -0.2863
     15  N         59.8920   41.7430   28.9040 N.3   194  VAL194     -0.1245
     16  CA        60.9210   42.7410   29.0750 C.3   194  VAL194      0.1561
     17  C         60.5780   43.1110   30.5050 C.2   194  VAL194      0.2260
     18  O         59.4120   43.3380   30.7980 O.2   194  VAL194     -0.2867
     19  CB        60.6640   43.8780   28.0600 C.3   194  VAL194      0.0252
     20  CG1       60.7920   45.2310   28.6920 C.3   194  VAL194      0.0019
     21  CG2       61.5970   43.7240   26.8820 C.3   194  VAL194      0.0019
     22  N         58.8860   52.1970   29.5560 N.3   199  PHE199     -0.1227
     23  CA        58.5840   51.6310   28.2520 C.3   199  PHE199      0.1736
     24  C         59.7590   51.6510   27.3120 C.2   199  PHE199      0.2595
     25  O         60.6200   52.5250   27.3900 O.2   199  PHE199     -0.2718
     26  CB        57.4110   52.3500   27.6410 C.3   199  PHE199      0.0547
     27  CG        56.1110   51.8670   28.1420 C.ar  199  PHE199     -0.0202
     28  CD1       55.7100   50.5670   27.8720 C.ar  199  PHE199     -0.0042
     29  CD2       55.2910   52.6870   28.8840 C.ar  199  PHE199     -0.0042
     30  CE1       54.5020   50.0800   28.3350 C.ar  199  PHE199     -0.0003
     31  CE2       54.0900   52.2300   29.3570 C.ar  199  PHE199     -0.0003
     32  CZ        53.6860   50.9210   29.0870 C.ar  199  PHE199     -0.0000
     33  N         59.7830   50.7020   26.3940 N.am  200  GLU200     -0.1979
     34  CA        60.9140   50.6040   25.4850 C.3   200  GLU200      0.1602
     35  C         61.1150   51.8310   24.6300 C.2   200  GLU200      0.2287
     36  O         60.1840   52.6010   24.4260 O.2   200  GLU200     -0.2864
     37  CB        60.9030   49.3120   24.6370 C.3   200  GLU200      0.0415
     38  CG        59.5670   48.8540   24.1750 C.3   200  GLU200      0.1163
     39  CD        58.6880   48.3890   25.3190 C.2   200  GLU200      0.3649
     40  OE1       59.1140   47.4860   26.0740 O.co2 200  GLU200     -0.2457
     41  OE2       57.5810   48.9480   25.4730 O.co2 200  GLU200     -0.2457
     42  N         55.4320   43.0920   23.1820 N.3   216  VAL216     -0.1231
     43  CA        56.2620   43.2620   24.3940 C.3   216  VAL216      0.1692
     44  C         55.4950   43.5200   25.6990 C.2   216  VAL216      0.2593
     45  O         54.5890   44.3610   25.7570 O.2   216  VAL216     -0.2718
     46  CB        57.3280   44.3650   24.2190 C.3   216  VAL216      0.0266
     47  CG1       56.6700   45.7350   23.9900 C.3   216  VAL216      0.0020
     48  CG2       58.2390   44.4000   25.4370 C.3   216  VAL216      0.0020
     49  N         55.8970   42.8230   26.7550 N.am  217  GLY217     -0.1942
     50  CA        55.2140   42.9550   28.0270 C.3   217  GLY217      0.2014
     51  C         56.1200   42.6770   29.2030 C.2   217  GLY217      0.2638
     52  O         57.2210   42.1830   29.0440 O.2   217  GLY217     -0.2714
     53  N         55.6120   42.9030   30.4020 N.am  218  MET218     -0.1976
     54  CA        56.4000   42.7510   31.6030 C.3   218  MET218      0.1605
     55  C         55.9050   41.6610   32.5360 C.2   218  MET218      0.2287
     56  O         56.1900   41.6900   33.7400 O.2   218  MET218     -0.2864
     57  CB        56.4300   44.1080   32.3090 C.3   218  MET218      0.0413
     58  CG        56.9220   45.2480   31.3870 C.3   218  MET218      0.0598
     59  SD        56.6300   46.9530   31.9470 S.3   218  MET218     -0.1393
     60  CE        56.7070   47.8270   30.3770 C.3   218  MET218      0.0692
     61  N         47.5210   46.6490   23.1900 N.3   241  THR241     -0.1203
     62  CA        47.0420   47.9520   23.6110 C.3   241  THR241      0.1994
     63  C         47.6970   49.1480   22.9690 C.2   241  THR241      0.2618
     64  O         47.3280   50.2840   23.2660 O.2   241  THR241     -0.2717
     65  CB        47.1710   48.1040   25.1200 C.3   241  THR241      0.1784
     66  OG1       48.5490   48.0060   25.5110 O.3   241  THR241     -0.2211
     67  CG2       46.3900   47.0130   25.8050 C.3   241  THR241      0.0376
     68  N         48.6670   48.9030   22.0960 N.am  242  ASN242     -0.1960
     69  CA        49.4000   49.9740   21.4270 C.3   242  ASN242      0.1819
     70  C         50.4850   49.3820   20.5410 C.2   242  ASN242      0.2621
     71  O         50.5180   48.1720   20.3320 O.2   242  ASN242     -0.2715
     72  CB        50.0380   50.8940   22.4690 C.3   242  ASN242      0.1195
     73  CG        50.5470   50.1370   23.6890 C.2   242  ASN242      0.2630
     74  OD1       50.3690   48.9330   23.8010 O.2   242  ASN242     -0.2716
     75  ND2       51.1750   50.8490   24.6070 N.am  242  ASN242     -0.0877
     76  N         51.3740   50.2320   20.0270 N.am  243  LYS243     -0.1963
     77  CA        52.4640   49.7930   19.1540 C.3   243  LYS243      0.1728
     78  C         53.4090   50.9330   18.7990 C.2   243  LYS243      0.2616
     79  O         52.9740   52.0870   18.7710 O.2   243  LYS243     -0.2715
     80  CB        51.8790   49.2170   17.8730 C.3   243  LYS243      0.0311
     81  CG        50.7870   50.0580   17.2690 C.3   243  LYS243      0.0038
     82  CD        49.8510   49.2150   16.3950 C.3   243  LYS243      0.0206
     83  CE        50.5760   48.5200   15.2280 C.3   243  LYS243      0.1093
     84  NZ        51.3030   47.2590   15.6090 N.3   243  LYS243     -0.1314
     85  N         54.6870   50.6140   18.5460 N.am  244  VAL244     -0.1977
     86  CA        55.7140   51.6080   18.1570 C.3   244  VAL244      0.1596
     87  C         56.9900   50.8990   17.6790 C.2   244  VAL244      0.2287
     88  O         57.0880   49.6830   17.8460 O.2   244  VAL244     -0.2864
     89  CB        56.0780   52.6080   19.3230 C.3   244  VAL244      0.0276
     90  CG1       56.7790   51.8850   20.4700 C.3   244  VAL244      0.0022
     91  CG2       56.9360   53.7770   18.7990 C.3   244  VAL244      0.0022
     92  N         53.7080   56.6780   22.2010 N.3   254  ALA254     -0.1245
     93  CA        52.9860   56.2290   23.3950 C.3   254  ALA254      0.1562
     94  C         53.0290   57.1750   24.5920 C.2   254  ALA254      0.2260
     95  O         53.1860   58.3830   24.4220 O.2   254  ALA254     -0.2867
     96  CB        53.4470   54.8260   23.8010 C.3   254  ALA254      0.0290
     97  N         47.5680   53.1930   26.2090 N.3   259  VAL259     -0.1245
     98  CA        47.2670   51.7810   26.3700 C.3   259  VAL259      0.1561
     99  C         45.8610   51.6930   26.9510 C.2   259  VAL259      0.2260
    100  O         45.5360   52.3170   27.9700 O.2   259  VAL259     -0.2867
    101  CB        48.3010   50.9610   27.2590 C.3   259  VAL259      0.0252
    102  CG1       49.6820   51.5600   27.2410 C.3   259  VAL259      0.0019
    103  CG2       47.8060   50.7730   28.6770 C.3   259  VAL259      0.0019
@<TRIPOS>BOND
     1    83    84    1
     2    83    82    1
     3    82    81    1
     4    81    80    1
     5    87    88    2
     6    87    86    1
     7    80    77    1
     8    86    85    1
     9    86    89    1
    10    85    78   am
    11    79    78    2
    12    91    89    1
    13    78    77    1
    14    77    76    1
    15    89    90    1
    16    76    70   am
    17    71    70    2
    18    70    69    1
    19    69    68    1
    20    69    72    1
    21    14    13    2
    22    13    12    1
    23    68    63   am
    24    92    93    1
    25    72    73    1
    26    12    11    1
    27    63    64    2
    28    63    62    1
    29    42    43    1
    30    61    62    1
    31    93    96    1
    32    93    94    1
    33    62    65    1
    34    73    74    2
    35    73    75   am
    36    11     8   am
    37    47    46    1
    38    38    37    1
    39    38    39    1
    40    46    43    1
    41    46    48    1
    42     9     8    2
    43    43    44    1
    44     8     7    1
    45    95    94    2
    46    36    35    2
    47    10     7    1
    48    35    34    1
    49    37    34    1
    50    65    66    1
    51    65    67    1
    52     7     6    1
    53    39    41   ar
    54    39    40   ar
    55    34    33    1
    56    44    45    2
    57    44    49   am
    58     6     3   am
    59    97    98    1
    60    98    99    1
    61    98   101    1
    62    33    24   am
    63    49    50    1
    64    21    19    1
    65    99   100    2
    66     3     2    1
    67     3     4    2
    68   102   101    1
    69   101   103    1
    70    24    25    2
    71    24    23    1
    72     2     5    1
    73     2     1    1
    74    26    27    1
    75    26    23    1
    76    28    27   ar
    77    28    30   ar
    78    50    51    1
    79    19    20    1
    80    19    16    1
    81    27    29   ar
    82    23    22    1
    83    30    32   ar
    84    29    31   ar
    85    15    16    1
    86    52    51    2
    87    16    17    1
    88    32    31   ar
    89    51    53   am
    90    60    59    1
    91    53    54    1
    92    17    18    2
    93    58    59    1
    94    58    57    1
    95    54    57    1
    96    54    55    1
    97    55    56    2
