@<TRIPOS>MOLECULE
tmp/1v47A00.pdb
 178 174 0 0 0
SMALL
GASTEIGER

@<TRIPOS>ATOM
      1  N         -9.1950   47.8710  179.2730 N.3   158  PHE158     -0.1227
      2  CA       -10.0580   48.7680  180.0020 C.3   158  PHE158      0.1736
      3  C         -9.5990   48.8330  181.4450 C.2   158  PHE158      0.2595
      4  O         -9.5700   47.8130  182.1550 O.2   158  PHE158     -0.2718
      5  CB       -11.4940   48.2640  179.9570 C.3   158  PHE158      0.0547
      6  CG       -12.4290   49.0360  180.8330 C.ar  158  PHE158     -0.0202
      7  CD1      -12.8230   50.3220  180.4850 C.ar  158  PHE158     -0.0042
      8  CD2      -12.9310   48.4710  181.9960 C.ar  158  PHE158     -0.0042
      9  CE1      -13.7090   51.0330  181.2800 C.ar  158  PHE158     -0.0003
     10  CE2      -13.8190   49.1740  182.8010 C.ar  158  PHE158     -0.0003
     11  CZ       -14.2100   50.4550  182.4460 C.ar  158  PHE158     -0.0000
     12  N         -9.2280   50.0390  181.8660 N.am  159  GLN159     -0.1965
     13  CA        -8.7770   50.2880  183.2270 C.3   159  GLN159      0.1733
     14  C         -9.9830   50.6380  184.0750 C.2   159  GLN159      0.2617
     15  O        -10.9920   51.1340  183.5640 O.2   159  GLN159     -0.2715
     16  CB        -7.7690   51.4450  183.2310 C.3   159  GLN159      0.0408
     17  CG        -7.8840   52.4580  184.3610 C.3   159  GLN159      0.0908
     18  CD        -7.2890   51.9660  185.6650 C.2   159  GLN159      0.2608
     19  OE1       -6.3140   51.2350  185.6720 O.2   159  GLN159     -0.2717
     20  NE2       -7.8630   52.3950  186.7780 N.am  159  GLN159     -0.0878
     21  N         -9.8870   50.3400  185.3660 N.am  160  THR160     -0.1937
     22  CA       -10.9410   50.6720  186.3010 C.3   160  THR160      0.2028
     23  C        -10.5080   50.4430  187.7290 C.2   160  THR160      0.2642
     24  O         -9.6660   49.5940  188.0140 O.2   160  THR160     -0.2714
     25  CB       -12.2670   49.8830  186.0460 C.3   160  THR160      0.1808
     26  OG1      -13.2730   50.3820  186.9360 O.3   160  THR160     -0.2208
     27  CG2      -12.0980   48.3860  186.3030 C.3   160  THR160      0.0379
     28  N        -11.0930   51.2280  188.6230 N.am  161  ARG161     -0.1963
     29  CA       -10.8070   51.1420  190.0440 C.3   161  ARG161      0.1729
     30  C        -12.1330   50.9590  190.7640 C.2   161  ARG161      0.2616
     31  O        -12.1890   50.9690  191.9870 O.2   161  ARG161     -0.2715
     32  CB       -10.1660   52.4390  190.5300 C.3   161  ARG161      0.0348
     33  CG       -11.1730   53.5620  190.8350 C.3   161  ARG161      0.0492
     34  CD       -10.5030   54.9240  190.7370 C.3   161  ARG161      0.2205
     35  NE       -11.2550   56.0010  191.3740 N.pl3 161  ARG161     -0.0865
     36  CZ       -11.2190   57.2710  190.9740 C.cat 161  ARG161      0.5346
     37  NH1      -10.4850   57.6210  189.9240 N.pl3 161  ARG161      0.1354
     38  NH2      -11.8590   58.2030  191.6600 N.pl3 161  ARG161      0.1354
     39  N        -13.2030   50.7970  190.0050 N.am  162  ASN162     -0.1972
     40  CA       -14.5020   50.6730  190.6270 C.3   162  ASN162      0.1688
     41  C        -15.3890   49.5350  190.1500 C.2   162  ASN162      0.2292
     42  O        -15.0310   48.7580  189.2610 O.2   162  ASN162     -0.2864
     43  CB       -15.2690   51.9820  190.4490 C.3   162  ASN162      0.1181
     44  CG       -15.6870   52.5780  191.7610 C.2   162  ASN162      0.2629
     45  OD1      -15.9770   51.8490  192.7140 O.2   162  ASN162     -0.2716
     46  ND2      -15.7290   53.9030  191.8280 N.am  162  ASN162     -0.0877
     47  N        -20.8140   50.5780  186.3280 N.3   165  HIS165     -0.1241
     48  CA       -22.1100   51.1970  186.1440 C.3   165  HIS165      0.1621
     49  C        -22.3090   51.1590  184.6300 C.2   165  HIS165      0.2264
     50  O        -21.4120   50.6930  183.9100 O.2   165  HIS165     -0.2867
     51  CB       -22.1520   52.6270  186.7090 C.3   165  HIS165      0.0745
     52  CG       -21.0630   53.5240  186.2130 C.ar  165  HIS165      0.0817
     53  ND1      -20.4020   54.4090  187.0380 N.ar  165  HIS165     -0.2268
     54  CD2      -20.5670   53.7270  184.9710 C.ar  165  HIS165      0.1154
     55  CE1      -19.5510   55.1230  186.3250 C.ar  165  HIS165      0.1986
     56  NE2      -19.6330   54.7290  185.0670 N.ar  165  HIS165     -0.2212
     57  N        -22.1290   53.3970  182.3840 N.3   167  ALA167     -0.1231
     58  CA       -21.1800   54.1620  181.5850 C.3   167  ALA167      0.1694
     59  C        -19.9310   53.3030  181.3590 C.2   167  ALA167      0.2592
     60  O        -19.4380   53.2190  180.2370 O.2   167  ALA167     -0.2718
     61  CB       -20.8200   55.4830  182.2810 C.3   167  ALA167      0.0304
     62  N        -19.4320   52.6620  182.4190 N.am  168  HIS168     -0.1976
     63  CA       -18.2550   51.7970  182.3030 C.3   168  HIS168      0.1656
     64  C        -18.5470   50.7320  181.2330 C.2   168  HIS168      0.2291
     65  O        -17.7250   50.4610  180.3450 O.2   168  HIS168     -0.2864
     66  CB       -17.9590   51.0830  183.6320 C.3   168  HIS168      0.0771
     67  CG       -17.5440   51.9940  184.7490 C.ar  168  HIS168      0.0820
     68  ND1      -17.9900   51.8320  186.0460 N.ar  168  HIS168     -0.2267
     69  CD2      -16.6950   53.0510  184.7760 C.ar  168  HIS168      0.1154
     70  CE1      -17.4360   52.7490  186.8200 C.ar  168  HIS168      0.1986
     71  NE2      -16.6450   53.5010  186.0730 N.ar  168  HIS168     -0.2212
     72  N        -18.0970   51.7360  177.5880 N.3   171  LEU171     -0.1245
     73  CA       -16.7080   51.7310  177.1310 C.3   171  LEU171      0.1561
     74  C        -16.3130   50.3040  176.7710 C.2   171  LEU171      0.2260
     75  O        -15.6860   50.0570  175.7380 O.2   171  LEU171     -0.2867
     76  CB       -15.7680   52.2570  178.2280 C.3   171  LEU171      0.0270
     77  CG       -15.6930   53.7560  178.5690 C.3   171  LEU171      0.0019
     78  CD1      -14.4110   54.3060  178.0220 C.3   171  LEU171      0.0001
     79  CD2      -16.8940   54.5310  178.0170 C.3   171  LEU171      0.0001
     80  N         -3.5940   53.0790  193.2600 N.3   227  MET227     -0.1245
     81  CA        -4.1410   54.0880  192.3670 C.3   227  MET227      0.1570
     82  C         -3.3240   55.2950  192.8110 C.2   227  MET227      0.2261
     83  O         -2.9880   55.4180  193.9860 O.2   227  MET227     -0.2867
     84  CB        -5.6150   54.3890  192.6750 C.3   227  MET227      0.0387
     85  CG        -6.6320   53.6080  191.8740 C.3   227  MET227      0.0595
     86  SD        -6.4040   53.7860  190.1190 S.3   227  MET227     -0.1393
     87  CE        -6.5980   55.5390  189.9050 C.3   227  MET227      0.0692
     88  N         -8.5580   52.2150  176.3390 N.3   251  LEU251     -0.1231
     89  CA        -9.6680   53.1290  176.4770 C.3   251  LEU251      0.1693
     90  C         -9.3350   54.2080  177.5040 C.2   251  LEU251      0.2592
     91  O         -8.6660   53.9510  178.5110 O.2   251  LEU251     -0.2718
     92  CB       -10.9210   52.3540  176.9210 C.3   251  LEU251      0.0284
     93  CG       -11.5660   51.3930  175.9100 C.3   251  LEU251      0.0019
     94  CD1      -12.3380   50.2980  176.6330 C.3   251  LEU251      0.0001
     95  CD2      -12.4930   52.1730  174.9720 C.3   251  LEU251      0.0001
     96  N         -9.7960   55.4180  177.2290 N.am  252  VAL252     -0.1966
     97  CA        -9.6110   56.5510  178.1250 C.3   252  VAL252      0.1727
     98  C        -10.8890   57.3640  178.0030 C.2   252  VAL252      0.2617
     99  O        -11.1090   58.0490  176.9990 O.2   252  VAL252     -0.2715
    100  CB        -8.4130   57.4450  177.7170 C.3   252  VAL252      0.0290
    101  CG1       -8.3310   58.6690  178.6430 C.3   252  VAL252      0.0023
    102  CG2       -7.1160   56.6470  177.7980 C.3   252  VAL252      0.0023
    103  N        -11.7440   57.2530  179.0120 N.am  253  GLY253     -0.1940
    104  CA       -12.9970   57.9870  179.0070 C.3   253  GLY253      0.2014
    105  C        -12.8850   59.3630  179.6370 C.2   253  GLY253      0.2639
    106  O        -11.8770   60.0440  179.4910 O.2   253  GLY253     -0.2714
    107  N        -13.9340   59.7610  180.3490 N.am  254  ARG254     -0.1963
    108  CA       -13.9940   61.0550  181.0090 C.3   254  ARG254      0.1729
    109  C        -13.2310   61.0490  182.3320 C.2   254  ARG254      0.2616
    110  O        -13.3350   60.1010  183.1170 O.2   254  ARG254     -0.2715
    111  CB       -15.4580   61.4320  181.2740 C.3   254  ARG254      0.0348
    112  CG       -15.6540   62.8000  181.9580 C.3   254  ARG254      0.0492
    113  CD       -17.1200   63.0560  182.3220 C.3   254  ARG254      0.2205
    114  NE       -17.3120   64.4030  182.8570 N.pl3 254  ARG254     -0.0865
    115  CZ       -16.9620   64.7730  184.0850 C.cat 254  ARG254      0.5346
    116  NH1      -16.4080   63.8910  184.9150 N.pl3 254  ARG254      0.1354
    117  NH2      -17.1470   66.0270  184.4800 N.pl3 254  ARG254      0.1354
    118  N        -12.4720   62.1170  182.5700 N.am  255  ASP255     -0.1957
    119  CA       -11.6970   62.2730  183.7980 C.3   255  ASP255      0.1840
    120  C        -10.9990   60.9790  184.2380 C.2   255  ASP255      0.2622
    121  O        -11.0930   60.5690  185.3900 O.2   255  ASP255     -0.2715
    122  CB       -12.6210   62.7990  184.9150 C.3   255  ASP255      0.1450
    123  CG       -11.8550   63.3270  186.1080 C.2   255  ASP255      0.3671
    124  OD1      -10.6840   63.7310  185.9320 O.co2 255  ASP255     -0.2456
    125  OD2      -12.4160   63.3620  187.2230 O.co2 255  ASP255     -0.2456
    126  N        -10.2850   60.3480  183.3140 N.am  256  HIS256     -0.1959
    127  CA        -9.5740   59.1080  183.6160 C.3   256  HIS256      0.1787
    128  C         -8.6190   59.3190  184.7890 C.2   256  HIS256      0.2620
    129  O         -7.8300   60.2650  184.7970 O.2   256  HIS256     -0.2715
    130  CB        -8.7950   58.6460  182.3890 C.3   256  HIS256      0.0785
    131  CG        -8.1100   57.3260  182.5560 C.ar  256  HIS256      0.0821
    132  ND1       -8.5650   56.1720  181.9550 N.ar  256  HIS256     -0.2267
    133  CD2       -6.9940   56.9780  183.2430 C.ar  256  HIS256      0.1154
    134  CE1       -7.7590   55.1710  182.2620 C.ar  256  HIS256      0.1986
    135  NE2       -6.7970   55.6330  183.0430 N.ar  256  HIS256     -0.2212
    136  N         -8.7210   58.4450  185.7850 N.am  257  ALA257     -0.1977
    137  CA        -7.8710   58.4890  186.9700 C.3   257  ALA257      0.1597
    138  C         -7.9190   59.7750  187.8000 C.2   257  ALA257      0.2287
    139  O         -6.9680   60.0680  188.5300 O.2   257  ALA257     -0.2864
    140  CB        -6.4210   58.1850  186.5750 C.3   257  ALA257      0.0319
    141  N        -15.8380   60.3990  175.0650 N.3   286  GLY286     -0.1210
    142  CA       -16.2600   61.4550  175.9640 C.3   286  GLY286      0.1956
    143  C        -17.1640   61.0050  177.0930 C.2   286  GLY286      0.2612
    144  O        -17.2490   59.8250  177.4320 O.2   286  GLY286     -0.2717
    145  N        -17.8380   61.9740  177.6860 N.am  287  ALA287     -0.1965
    146  CA       -18.7500   61.7090  178.7760 C.3   287  ALA287      0.1728
    147  C        -19.8360   60.7470  178.3090 C.2   287  ALA287      0.2616
    148  O        -20.3820   60.9030  177.2240 O.2   287  ALA287     -0.2715
    149  CB       -19.3730   63.0150  179.2450 C.3   287  ALA287      0.0334
    150  N        -20.1300   59.7480  179.1310 N.am  288  VAL288     -0.1977
    151  CA       -21.1660   58.7730  178.8220 C.3   288  VAL288      0.1596
    152  C        -22.2990   58.9470  179.8320 C.2   288  VAL288      0.2287
    153  O        -22.0630   59.0510  181.0290 O.2   288  VAL288     -0.2864
    154  CB       -20.6140   57.3400  178.8790 C.3   288  VAL288      0.0276
    155  CG1      -21.7600   56.3210  178.7360 C.3   288  VAL288      0.0022
    156  CG2      -19.6000   57.1520  177.7600 C.3   288  VAL288      0.0022
    157  N        -23.8970   59.9190  184.8680 N.3   314  ILE314     -0.1231
    158  CA       -23.5800   58.6250  185.4520 C.3   314  ILE314      0.1692
    159  C        -22.2060   58.6570  186.1030 C.2   314  ILE314      0.2593
    160  O        -21.1940   58.8700  185.4320 O.2   314  ILE314     -0.2718
    161  CB       -23.5810   57.5140  184.3780 C.3   314  ILE314      0.0266
    162  CG1      -24.9640   57.4310  183.7280 C.3   314  ILE314      0.0019
    163  CG2      -23.1800   56.1710  185.0140 C.3   314  ILE314      0.0020
    164  CD1      -25.0940   56.3680  182.6690 C.3   314  ILE314      0.0001
    165  N        -22.1720   58.4530  187.4120 N.am  315  SER315     -0.1938
    166  CA       -20.9110   58.4390  188.1340 C.3   315  SER315      0.2055
    167  C        -21.1000   57.6330  189.4120 C.2   315  SER315      0.2642
    168  O        -22.1930   57.6140  189.9880 O.2   315  SER315     -0.2714
    169  CB       -20.4680   59.8610  188.4760 C.3   315  SER315      0.2130
    170  OG       -21.1070   60.3120  189.6510 O.3   315  SER315     -0.2179
    171  N        -20.0320   56.9870  189.8650 N.am  316  MET316     -0.1976
    172  CA       -20.1190   56.1660  191.0540 C.3   316  MET316      0.1605
    173  C        -20.3050   57.0090  192.3030 C.2   316  MET316      0.2287
    174  O        -20.8160   56.5280  193.3170 O.2   316  MET316     -0.2864
    175  CB       -18.8830   55.2600  191.1650 C.3   316  MET316      0.0413
    176  CG       -19.2030   53.8920  191.7530 C.3   316  MET316      0.0598
    177  SD       -20.7280   53.1850  191.0230 S.3   316  MET316     -0.1393
    178  CE       -20.1560   51.6330  190.3600 C.3   316  MET316      0.0692
@<TRIPOS>BOND
     1    95    93    1
     2   141   142    1
     3    75    74    2
     4    93    94    1
     5    93    92    1
     6   142   143    1
     7    88    89    1
     8    89    92    1
     9    89    90    1
    10    74    73    1
    11    99    98    2
    12   143   144    2
    13   143   145   am
    14    73    72    1
    15    73    76    1
    16   148   147    2
    17    96    90   am
    18    96    97    1
    19    90    91    2
    20   145   146    1
    21   100   102    1
    22   100    97    1
    23   100   101    1
    24   156   154    1
    25    98    97    1
    26    98   103   am
    27    79    77    1
    28    78    77    1
    29    76    77    1
    30   147   146    1
    31   147   150   am
    32   155   154    1
    33   146   149    1
    34   151   154    1
    35   151   150    1
    36   151   152    1
    37   104   103    1
    38   104   105    1
    39     1     2    1
    40   106   105    2
    41   105   107   am
    42   152   153    2
    43     5     2    1
    44     5     6    1
    45     2     3    1
    46    60    59    2
    47    65    64    2
    48   107   108    1
    49     7     6   ar
    50     7     9   ar
    51     6     8   ar
    52   108   111    1
    53   108   109    1
    54    64    63    1
    55   111   112    1
    56     9    11   ar
    57    59    58    1
    58    59    62   am
    59     3    12   am
    60     3     4    2
    61    58    61    1
    62    58    57    1
    63    12    13    1
    64   132   134   ar
    65   132   131   ar
    66   112   113    1
    67     8    10   ar
    68   134   135   ar
    69    63    62    1
    70    63    66    1
    71   113   114    1
    72   109   118   am
    73   109   110    2
    74   130   131    1
    75   130   127    1
    76    11    10   ar
    77   131   133   ar
    78   118   119    1
    79   164   162    1
    80   114   115    2
    81   135   133   ar
    82    13    16    1
    83    13    14    1
    84    16    17    1
    85   126   127    1
    86   126   120   am
    87    15    14    2
    88   127   128    1
    89    66    67    1
    90   162   161    1
    91   119   120    1
    92   119   122    1
    93    50    49    2
    94    14    21   am
    95   115   117    1
    96   115   116    1
    97   120   121    2
    98    17    18    1
    99   161   163    1
   100   161   158    1
   101    49    48    1
   102    67    69   ar
   103    67    68   ar
   104    69    71   ar
   105   128   129    2
   106   128   136   am
   107   157   158    1
   108   122   123    1
   109    54    56   ar
   110    54    52   ar
   111    56    55   ar
   112    21    22    1
   113   160   159    2
   114   158   159    1
   115    18    19    2
   116    18    20   am
   117   136   137    1
   118   124   123   ar
   119    25    22    1
   120    25    27    1
   121    25    26    1
   122    68    70   ar
   123    71    70   ar
   124   159   165   am
   125   123   125   ar
   126    48    47    1
   127    48    51    1
   128    52    51    1
   129    52    53   ar
   130    22    23    1
   131    55    53   ar
   132   140   137    1
   133   137   138    1
   134   165   166    1
   135    23    24    2
   136    23    28   am
   137   138   139    2
   138   166   169    1
   139   166   167    1
   140   169   170    1
   141    28    29    1
   142    42    41    2
   143   167   171   am
   144   167   168    2
   145   171   172    1
   146    87    86    1
   147    37    36    1
   148    39    40    1
   149    39    30   am
   150    29    32    1
   151    29    30    1
   152    86    85    1
   153    41    40    1
   154   178   177    1
   155    43    40    1
   156    43    44    1
   157    32    33    1
   158    34    33    1
   159    34    35    1
   160    30    31    2
   161    36    35    2
   162    36    38    1
   163   177   176    1
   164   172   175    1
   165   172   173    1
   166   175   176    1
   167    44    46   am
   168    44    45    2
   169    85    84    1
   170   173   174    2
   171    81    84    1
   172    81    82    1
   173    81    80    1
   174    82    83    2
