@<TRIPOS>MOLECULE
tmp/1v48A00.pdb
 152 145 0 0 0
SMALL
GASTEIGER

@<TRIPOS>ATOM
      1  N         71.8880   35.0700   49.8950 N.3    31  GLY31      -0.1210
      2  CA        72.5110   36.0410   50.7720 C.3    31  GLY31       0.1956
      3  C         71.7410   36.2280   52.0650 C.2    31  GLY31       0.2612
      4  O         71.6120   35.2950   52.8620 O.2    31  GLY31      -0.2717
      5  N         71.2160   37.4340   52.2660 N.am   32  SER32      -0.1952
      6  CA        70.4700   37.7590   53.4770 C.3    32  SER32       0.1924
      7  C         68.9780   37.9740   53.2320 C.2    32  SER32       0.2314
      8  O         68.5890   38.8090   52.4140 O.2    32  SER32      -0.2863
      9  CB        71.0620   39.0150   54.1320 C.3    32  SER32       0.2116
     10  OG        71.0490   40.1180   53.2340 O.3    32  SER32      -0.2180
     11  N         76.2870   33.5360   52.6400 N.3    77  ARG77      -0.1245
     12  CA        77.4170   33.5780   51.7330 C.3    77  ARG77       0.1563
     13  C         78.5760   34.3510   52.3420 C.2    77  ARG77       0.2260
     14  O         78.4900   34.8250   53.4720 O.2    77  ARG77      -0.2867
     15  CB        77.0110   34.2000   50.3900 C.3    77  ARG77       0.0307
     16  CG        76.4700   35.6140   50.4800 C.3    77  ARG77       0.0489
     17  CD        77.0650   36.4780   49.3760 C.3    77  ARG77       0.2205
     18  NE        76.6920   36.0130   48.0430 N.pl3  77  ARG77      -0.0865
     19  CZ        75.5010   36.2110   47.4910 C.cat  77  ARG77       0.5346
     20  NH1       74.5660   36.8740   48.1580 N.pl3  77  ARG77       0.1354
     21  NH2       75.2400   35.7290   46.2810 N.pl3  77  ARG77       0.1354
     22  N         81.5200   37.5080   52.1290 N.3    79  HIS79      -0.1241
     23  CA        81.6760   38.8520   51.5840 C.3    79  HIS79       0.1621
     24  C         83.0640   39.4130   51.7720 C.2    79  HIS79       0.2264
     25  O         83.7410   39.1160   52.7520 O.2    79  HIS79      -0.2867
     26  CB        80.6900   39.8250   52.2370 C.3    79  HIS79       0.0745
     27  CG        79.2760   39.3350   52.2590 C.ar   79  HIS79       0.0817
     28  ND1       78.8050   38.4640   53.2160 N.ar   79  HIS79      -0.2268
     29  CD2       78.2320   39.5920   51.4360 C.ar   79  HIS79       0.1154
     30  CE1       77.5300   38.2070   52.9830 C.ar   79  HIS79       0.1986
     31  NE2       77.1580   38.8800   51.9090 N.ar   79  HIS79      -0.2212
     32  N         83.7090   42.4320   52.4730 N.3    81  TYR81      -0.1241
     33  CA        83.6650   43.3170   53.6380 C.3    81  TYR81       0.1605
     34  C         83.9250   42.6210   54.9750 C.2    81  TYR81       0.2264
     35  O         84.2400   43.2820   55.9640 O.2    81  TYR81      -0.2867
     36  CB        82.3320   44.0900   53.6900 C.3    81  TYR81       0.0534
     37  CG        81.0930   43.2710   53.9980 C.ar   81  TYR81      -0.0201
     38  CD1       80.9530   42.6030   55.2140 C.ar   81  TYR81      -0.0009
     39  CD2       80.0380   43.2040   53.0890 C.ar   81  TYR81      -0.0009
     40  CE1       79.7970   41.8930   55.5190 C.ar   81  TYR81       0.0417
     41  CE2       78.8730   42.4960   53.3840 C.ar   81  TYR81       0.0417
     42  CZ        78.7620   41.8450   54.5980 C.ar   81  TYR81       0.1957
     43  OH        77.6190   41.1420   54.8920 O.3    81  TYR81      -0.2866
     44  N         70.6950   38.0460   45.7590 N.3   108  ASN108     -0.1225
     45  CA        71.2590   39.0150   46.6800 C.3   108  ASN108      0.1785
     46  C         70.2540   40.1060   47.0040 C.2   108  ASN108      0.2597
     47  O         69.2510   40.2670   46.3070 O.2   108  ASN108     -0.2718
     48  CB        72.5180   39.6540   46.0710 C.3   108  ASN108      0.1169
     49  CG        72.2310   40.4250   44.7770 C.2   108  ASN108      0.2627
     50  OD1       71.3400   41.2820   44.7230 O.2   108  ASN108     -0.2716
     51  ND2       73.0010   40.1300   43.7340 N.am  108  ASN108     -0.0877
     52  N         70.5100   40.8340   48.0860 N.am  109  ALA109     -0.1966
     53  CA        69.6620   41.9580   48.4590 C.3   109  ALA109      0.1728
     54  C         70.4540   43.1360   47.8920 C.2   109  ALA109      0.2616
     55  O         71.6850   43.1470   47.9750 O.2   109  ALA109     -0.2715
     56  CB        69.5430   42.0670   49.9750 C.3   109  ALA109      0.0334
     57  N         69.7690   44.1080   47.3010 N.am  110  ALA110     -0.1963
     58  CA        70.4600   45.2470   46.7090 C.3   110  ALA110      0.1728
     59  C         69.7030   46.5560   46.8580 C.2   110  ALA110      0.2616
     60  O         68.5030   46.5670   47.1510 O.2   110  ALA110     -0.2715
     61  CB        70.7250   44.9790   45.2290 C.3   110  ALA110      0.0334
     62  N         70.4250   47.6570   46.6580 N.am  111  GLY111     -0.1955
     63  CA        69.8300   48.9760   46.7420 C.3   111  GLY111      0.1869
     64  C         69.4420   49.3980   45.3390 C.2   111  GLY111      0.2309
     65  O         70.2220   49.2350   44.4000 O.2   111  GLY111     -0.2863
     66  N         73.7780   45.1610   37.8210 N.3   185  TYR185     -0.1241
     67  CA        74.1330   45.1390   39.2320 C.3   185  TYR185      0.1605
     68  C         75.5880   45.5730   39.3750 C.2   185  TYR185      0.2264
     69  O         76.4710   45.0360   38.7050 O.2   185  TYR185     -0.2867
     70  CB        73.9710   43.7170   39.7800 C.3   185  TYR185      0.0534
     71  CG        74.4330   43.5080   41.2070 C.ar  185  TYR185     -0.0201
     72  CD1       73.5860   43.7690   42.2860 C.ar  185  TYR185     -0.0009
     73  CD2       75.7070   43.0050   41.4780 C.ar  185  TYR185     -0.0009
     74  CE1       73.9950   43.5250   43.6000 C.ar  185  TYR185      0.0417
     75  CE2       76.1270   42.7600   42.7830 C.ar  185  TYR185      0.0417
     76  CZ        75.2680   43.0170   43.8390 C.ar  185  TYR185      0.1957
     77  OH        75.6690   42.7490   45.1300 O.3   185  TYR185     -0.2866
     78  N         80.2350   46.7190   45.0570 N.3   188  LEU188     -0.1245
     79  CA        81.1650   47.5650   45.8060 C.3   188  LEU188      0.1561
     80  C         81.6160   46.7310   47.0100 C.2   188  LEU188      0.2260
     81  O         80.9090   45.8190   47.4440 O.2   188  LEU188     -0.2867
     82  CB        80.4770   48.8340   46.3260 C.3   188  LEU188      0.0270
     83  CG        80.3100   50.0590   45.4260 C.3   188  LEU188      0.0019
     84  CD1       79.3550   49.7630   44.2800 C.3   188  LEU188      0.0001
     85  CD2       79.7720   51.2010   46.2690 C.3   188  LEU188      0.0001
     86  N         77.2590   52.0010   53.6720 N.3   193  PHE193     -0.1227
     87  CA        76.3580   52.2930   52.5640 C.3   193  PHE193      0.1736
     88  C         76.8780   53.5670   51.8980 C.2   193  PHE193      0.2595
     89  O         77.5610   54.3740   52.5340 O.2   193  PHE193     -0.2718
     90  CB        74.9230   52.4750   53.0670 C.3   193  PHE193      0.0547
     91  CG        74.1410   51.1870   53.1540 C.ar  193  PHE193     -0.0202
     92  CD1       74.6980   50.0510   53.7310 C.ar  193  PHE193     -0.0042
     93  CD2       72.8380   51.1160   52.6790 C.ar  193  PHE193     -0.0042
     94  CE1       73.9660   48.8590   53.8350 C.ar  193  PHE193     -0.0003
     95  CE2       72.0980   49.9300   52.7800 C.ar  193  PHE193     -0.0003
     96  CZ        72.6690   48.8010   53.3610 C.ar  193  PHE193     -0.0000
     97  N         76.5540   53.7420   50.6200 N.am  194  GLU194     -0.1979
     98  CA        77.0380   54.8830   49.8480 C.3   194  GLU194      0.1602
     99  C         76.5040   56.2600   50.2080 C.2   194  GLU194      0.2287
    100  O         75.4300   56.4110   50.7870 O.2   194  GLU194     -0.2864
    101  CB        76.7860   54.6570   48.3580 C.3   194  GLU194      0.0415
    102  CG        77.4460   53.4280   47.7580 C.3   194  GLU194      0.1163
    103  CD        76.8240   52.1300   48.2340 C.2   194  GLU194      0.3649
    104  OE1       75.5940   52.0910   48.4440 O.co2 194  GLU194     -0.2457
    105  OE2       77.5610   51.1360   48.3800 O.co2 194  GLU194     -0.2457
    106  N         72.7790   48.2990   43.4370 N.3   210  VAL210     -0.1231
    107  CA        74.0920   48.2060   44.0590 C.3   210  VAL210      0.1692
    108  C         74.0820   47.2030   45.2190 C.2   210  VAL210      0.2593
    109  O         73.1130   47.1210   45.9790 O.2   210  VAL210     -0.2718
    110  CB        74.5520   49.5950   44.5540 C.3   210  VAL210      0.0266
    111  CG1       73.4840   50.2150   45.4490 C.3   210  VAL210      0.0020
    112  CG2       75.8740   49.4760   45.2930 C.3   210  VAL210      0.0020
    113  N         75.1590   46.4300   45.3310 N.am  211  GLY211     -0.1942
    114  CA        75.2630   45.4310   46.3810 C.3   211  GLY211      0.2014
    115  C         76.7000   45.1360   46.7770 C.2   211  GLY211      0.2639
    116  O         77.6220   45.8180   46.3230 O.2   211  GLY211     -0.2714
    117  N         76.9000   44.1070   47.5970 N.am  212  MET212     -0.1963
    118  CA        78.2350   43.7730   48.0870 C.3   212  MET212      0.1736
    119  C         78.6500   42.3150   47.9030 C.2   212  MET212      0.2617
    120  O         79.4430   41.7890   48.6850 O.2   212  MET212     -0.2715
    121  CB        78.3240   44.1360   49.5760 C.3   212  MET212      0.0427
    122  CG        77.9680   45.5900   49.8890 C.3   212  MET212      0.0599
    123  SD        77.8850   45.9580   51.6710 S.3   212  MET212     -0.1393
    124  CE        77.4240   47.6700   51.6380 C.3   212  MET212      0.0692
    125  N         78.1450   41.6640   46.8630 N.am  213  SER213     -0.1950
    126  CA        78.4770   40.2590   46.6350 C.3   213  SER213      0.1924
    127  C         78.1770   39.8640   45.2030 C.2   213  SER213      0.2314
    128  O         78.1430   40.7040   44.3060 O.2   213  SER213     -0.2863
    129  CB        77.6180   39.3890   47.5460 C.3   213  SER213      0.2116
    130  OG        76.2520   39.5030   47.1660 O.3   213  SER213     -0.2180
    131  N         65.6280   45.8460   48.2530 N.3   235  THR235     -0.1203
    132  CA        65.1200   46.0540   49.6050 C.3   235  THR235      0.1994
    133  C         64.8790   47.5180   49.9760 C.2   235  THR235      0.2617
    134  O         64.2520   47.8070   50.9940 O.2   235  THR235     -0.2717
    135  CB        66.0620   45.4280   50.6510 C.3   235  THR235      0.1784
    136  OG1       67.3680   45.9990   50.5250 O.3   235  THR235     -0.2211
    137  CG2       66.1560   43.9230   50.4450 C.3   235  THR235      0.0376
    138  N         65.3760   48.4400   49.1620 N.am  236  ASN236     -0.1974
    139  CA        65.1680   49.8540   49.4450 C.3   236  ASN236      0.1688
    140  C         65.5440   50.7200   48.2550 C.2   236  ASN236      0.2292
    141  O         66.4330   50.3700   47.4770 O.2   236  ASN236     -0.2864
    142  CB        65.9800   50.2720   50.6770 C.3   236  ASN236      0.1181
    143  CG        67.4590   50.4110   50.3850 C.2   236  ASN236      0.2629
    144  OD1       67.9100   51.4440   49.8980 O.2   236  ASN236     -0.2716
    145  ND2       68.2230   49.3660   50.6760 N.am  236  ASN236     -0.0877
    146  N         67.3570   53.6740   46.8820 N.3   238  VAL238     -0.1245
    147  CA        68.4700   54.5200   47.2980 C.3   238  VAL238      0.1561
    148  C         68.1330   55.9900   47.0600 C.2   238  VAL238      0.2260
    149  O         67.5770   56.3390   46.0230 O.2   238  VAL238     -0.2867
    150  CB        69.7560   54.1630   46.5150 C.3   238  VAL238      0.0252
    151  CG1       70.9210   54.9660   47.0430 C.3   238  VAL238      0.0019
    152  CG2       70.0360   52.6670   46.6230 C.3   238  VAL238      0.0019
@<TRIPOS>BOND
     1    66    67    1
     2    69    68    2
     3    67    68    1
     4    67    70    1
     5    70    71    1
     6    71    73   ar
     7    71    72   ar
     8    73    75   ar
     9    72    74   ar
    10    75    76   ar
    11   106   107    1
    12    74    76   ar
    13    51    49   am
    14    76    77    1
    15   107   110    1
    16   107   108    1
    17    84    83    1
    18   128   127    2
    19    65    64    2
    20   110   112    1
    21   110   111    1
    22    50    49    2
    23    49    48    1
    24    78    79    1
    25   127   126    1
    26   108   113   am
    27   108   109    2
    28    61    58    1
    29   113   114    1
    30    64    63    1
    31    83    85    1
    32    83    82    1
    33    44    45    1
    34    79    82    1
    35    79    80    1
    36   149   148    2
    37    48    45    1
    38    21    19    1
    39    47    46    2
    40   116   115    2
    41   114   115    1
    42   150   152    1
    43   150   151    1
    44   150   147    1
    45   126   125    1
    46   126   129    1
    47    62    63    1
    48    62    59   am
    49    45    46    1
    50    58    59    1
    51    58    57    1
    52   115   117   am
    53    59    60    2
    54   125   119   am
    55   146   147    1
    56    46    52   am
    57    80    81    2
    58   148   147    1
    59   130   129    1
    60    57    54   am
    61   141   140    2
    62    19    18    2
    63    19    20    1
    64   117   118    1
    65   102   103    1
    66   102   101    1
    67    54    55    2
    68    54    53    1
    69   119   118    1
    70   119   120    2
    71    18    17    1
    72    52    53    1
    73   118   121    1
    74   103   105   ar
    75   103   104   ar
    76   131   132    1
    77   140   139    1
    78   101    98    1
    79    53    56    1
    80   138   139    1
    81   138   133   am
    82    17    16    1
    83   139   142    1
    84   121   122    1
    85   132   133    1
    86   132   135    1
    87    98    99    1
    88    98    97    1
    89   122   123    1
    90     1     2    1
    91   144   143    2
    92   133   134    2
    93    99   100    2
    94   143   145   am
    95   143   142    1
    96    15    16    1
    97    15    12    1
    98   137   135    1
    99   136   135    1
   100    97    88   am
   101     2     3    1
   102    29    31   ar
   103    29    27   ar
   104    23    24    1
   105    23    22    1
   106    23    26    1
   107   124   123    1
   108    12    13    1
   109    12    11    1
   110    24    25    2
   111    88    89    2
   112    88    87    1
   113    31    30   ar
   114     3     5   am
   115     3     4    2
   116    26    27    1
   117    27    28   ar
   118     5     6    1
   119    13    14    2
   120     8     7    2
   121    32    33    1
   122    87    90    1
   123    87    86    1
   124    93    95   ar
   125    93    91   ar
   126    95    96   ar
   127    30    28   ar
   128    90    91    1
   129    39    41   ar
   130    39    37   ar
   131    91    92   ar
   132     7     6    1
   133    10     9    1
   134    96    94   ar
   135    41    42   ar
   136     6     9    1
   137    33    36    1
   138    33    34    1
   139    36    37    1
   140    92    94   ar
   141    37    38   ar
   142    42    43    1
   143    42    40   ar
   144    34    35    2
   145    38    40   ar
