@<TRIPOS>MOLECULE
tmp/1v4wC00.pdb
 217 207 0 0 0
SMALL
GASTEIGER

@<TRIPOS>ATOM
      1  N         -1.5810   14.6930   61.6160 N.3    30  LEU30      -0.1245
      2  CA        -1.3570   14.4520   63.0410 C.3    30  LEU30       0.1561
      3  C         -0.4420   13.2650   63.2190 C.2    30  LEU30       0.2260
      4  O          0.4930   13.3020   64.0190 O.2    30  LEU30      -0.2867
      5  CB        -2.6830   14.2080   63.7480 C.3    30  LEU30       0.0270
      6  CG        -3.1440   15.1840   64.8250 C.3    30  LEU30       0.0019
      7  CD1       -2.1660   15.1580   66.0040 C.3    30  LEU30       0.0001
      8  CD2       -3.2740   16.5760   64.2180 C.3    30  LEU30       0.0001
      9  N          3.0230   14.4670   62.3990 N.3    33  MET33      -0.1245
     10  CA         3.5820   15.3240   63.4350 C.3    33  MET33       0.1570
     11  C          4.1730   14.4490   64.5380 C.2    33  MET33       0.2261
     12  O          5.2890   14.6680   65.0000 O.2    33  MET33      -0.2867
     13  CB         2.5020   16.2630   64.0130 C.3    33  MET33       0.0387
     14  CG         3.0620   17.0970   65.1860 C.3    33  MET33       0.0595
     15  SD         1.8000   18.0730   65.9670 S.3    33  MET33      -0.1393
     16  CE         1.0190   16.8580   66.9540 C.3    33  MET33       0.0692
     17  N          6.4850   16.1640   70.0650 N.3    40  THR40      -0.1218
     18  CA         5.0850   16.5160   70.2310 C.3    40  THR40       0.1862
     19  C          4.2910   15.4040   70.9100 C.2    40  THR40       0.2287
     20  O          3.1740   15.6320   71.3590 O.2    40  THR40      -0.2866
     21  CB         4.4080   16.8260   68.8800 C.3    40  THR40       0.1770
     22  OG1        4.5000   15.6520   68.0370 O.3    40  THR40      -0.2211
     23  CG2        5.1460   17.9770   68.1220 C.3    40  THR40       0.0375
     24  N          2.2910   15.4060   74.6420 N.3    43  TYR43      -0.1227
     25  CA         0.9610   15.8470   75.0210 C.3    43  TYR43       0.1736
     26  C         -0.0840   14.7350   74.8810 C.2    43  TYR43       0.2595
     27  O         -1.2510   14.9490   75.2180 O.2    43  TYR43      -0.2718
     28  CB         0.5320   17.0120   74.1420 C.3    43  TYR43       0.0548
     29  CG         1.4090   18.2030   74.3990 C.ar   43  TYR43      -0.0200
     30  CD1        1.1550   19.0210   75.4800 C.ar   43  TYR43      -0.0009
     31  CD2        2.5040   18.4650   73.5890 C.ar   43  TYR43      -0.0009
     32  CE1        1.9810   20.0970   75.7550 C.ar   43  TYR43       0.0417
     33  CE2        3.3310   19.5350   73.8410 C.ar   43  TYR43       0.0417
     34  CZ         3.0470   20.3580   74.9220 C.ar   43  TYR43       0.1957
     35  OH         3.8730   21.4340   75.2190 O.3    43  TYR43      -0.2866
     36  N          0.3340   13.5790   74.3850 N.am   44  PHE44      -0.1976
     37  CA        -0.6380   12.5450   74.0080 C.3    44  PHE44       0.1639
     38  C         -0.3590   11.2110   74.7030 C.2    44  PHE44       0.2290
     39  O         -0.8600   10.1700   74.2660 O.2    44  PHE44      -0.2864
     40  CB        -0.5900   12.3700   72.4960 C.3    44  PHE44       0.0560
     41  CG        -0.9540   13.6230   71.7320 C.ar   44  PHE44      -0.0200
     42  CD1        0.0390   14.4260   71.1790 C.ar   44  PHE44      -0.0042
     43  CD2       -2.2830   14.0370   71.6310 C.ar   44  PHE44      -0.0042
     44  CE1       -0.2860   15.5950   70.5160 C.ar   44  PHE44      -0.0003
     45  CE2       -2.6070   15.2100   70.9610 C.ar   44  PHE44      -0.0003
     46  CZ        -1.6040   15.9870   70.3970 C.ar   44  PHE44      -0.0000
     47  N         -1.5100    9.8650   77.1960 N.3    46  HIS46      -0.1226
     48  CA        -2.6900    9.1710   77.7640 C.3    46  HIS46       0.1752
     49  C         -3.3830    8.3210   76.6830 C.2    46  HIS46       0.2596
     50  O         -4.2440    7.4940   77.0050 O.2    46  HIS46      -0.2718
     51  CB        -3.6890   10.1530   78.3720 C.3    46  HIS46       0.0759
     52  CG        -4.0660   11.2660   77.4430 C.ar   46  HIS46       0.0818
     53  ND1       -3.1390   12.1620   76.9280 N.ar   46  HIS46      -0.2268
     54  CD2       -5.2630   11.6160   76.9210 C.ar   46  HIS46       0.1154
     55  CE1       -3.7600   13.0050   76.1230 C.ar   46  HIS46       0.1986
     56  NE2       -5.0470   12.6930   76.1010 N.ar   46  HIS46      -0.2212
     57  N         -2.9970    8.5170   75.4090 N.am   47  TRP47      -0.1976
     58  CA        -3.5880    7.7520   74.3130 C.3    47  TRP47       0.1640
     59  C         -3.0030    6.3490   74.3070 C.2    47  TRP47       0.2290
     60  O         -1.8350    6.1510   74.6200 O.2    47  TRP47      -0.2864
     61  CB        -3.2810    8.3980   72.9650 C.3    47  TRP47       0.0576
     62  CG        -4.0490    9.6160   72.6450 C.ar   47  TRP47       0.0006
     63  CD1       -4.9650   10.2660   73.4200 C.ar   47  TRP47       0.0946
     64  CD2       -3.9540   10.3580   71.4340 C.ar   47  TRP47       0.0152
     65  NE1       -5.4600   11.3620   72.7480 N.ar   47  TRP47      -0.2442
     66  CE2       -4.8530   11.4370   71.5250 C.ar   47  TRP47       0.0810
     67  CE3       -3.2060   10.2060   70.2670 C.ar   47  TRP47       0.0012
     68  CZ2       -5.0050   12.3680   70.5070 C.ar   47  TRP47       0.0191
     69  CZ3       -3.3450   11.1400   69.2710 C.ar   47  TRP47       0.0001
     70  CH2       -4.2540   12.1920   69.3870 C.ar   47  TRP47       0.0015
     71  N         -8.6490   12.1180   66.5810 N.3    60  HIS60      -0.1241
     72  CA        -8.2090   13.4610   66.9140 C.3    60  HIS60       0.1621
     73  C         -7.9560   14.2880   65.6530 C.2    60  HIS60       0.2264
     74  O         -8.1890   15.5000   65.6300 O.2    60  HIS60      -0.2867
     75  CB        -6.9520   13.4250   67.7730 C.3    60  HIS60       0.0745
     76  CG        -6.6310   14.7540   68.3790 C.ar   60  HIS60       0.0817
     77  ND1       -7.5280   15.4400   69.1690 N.ar   60  HIS60      -0.2268
     78  CD2       -5.5460   15.5470   68.2610 C.ar   60  HIS60       0.1154
     79  CE1       -6.9960   16.5960   69.5250 C.ar   60  HIS60       0.1986
     80  NE2       -5.7970   16.6880   68.9870 N.ar   60  HIS60      -0.2212
     81  N        -11.0150   16.0530   64.7130 N.3    63  LYS63      -0.1231
     82  CA       -11.3310   17.1610   65.6160 C.3    63  LYS63       0.1693
     83  C        -10.4720   18.3840   65.2700 C.2    63  LYS63       0.2591
     84  O        -10.9580   19.5120   65.2510 O.2    63  LYS63      -0.2718
     85  CB       -11.0780   16.7780   67.0770 C.3    63  LYS63       0.0285
     86  CG       -12.1570   15.9020   67.7190 C.3    63  LYS63       0.0035
     87  CD       -11.9060   15.7610   69.2240 C.3    63  LYS63       0.0206
     88  CE       -12.6220   14.5520   69.8330 C.3    63  LYS63       0.1093
     89  NZ       -13.9560   14.9220   70.4320 N.3    63  LYS63      -0.1314
     90  N         -9.1870   18.1520   65.0110 N.am   64  VAL64      -0.1980
     91  CA        -8.2730   19.2530   64.6880 C.3    64  VAL64       0.1595
     92  C         -8.7160   19.9380   63.3970 C.2    64  VAL64       0.2287
     93  O         -8.7390   21.1610   63.3030 O.2    64  VAL64      -0.2864
     94  CB        -6.8260   18.7320   64.5440 C.3    64  VAL64       0.0276
     95  CG1       -5.9260   19.7590   63.8390 C.3    64  VAL64       0.0022
     96  CG2       -6.2930   18.3650   65.8810 C.3    64  VAL64       0.0022
     97  N        -11.5180   22.2110   63.8080 N.3    67  GLY67      -0.1210
     98  CA       -11.0620   23.5100   64.2870 C.3    67  GLY67       0.1956
     99  C        -10.5640   24.3460   63.1450 C.2    67  GLY67       0.2611
    100  O        -10.7970   25.5590   63.1070 O.2    67  GLY67      -0.2717
    101  N         -9.8550   23.7110   62.2030 N.am   68  VAL68      -0.1979
    102  CA        -9.4230   24.4280   61.0150 C.3    68  VAL68       0.1595
    103  C        -10.6540   24.8680   60.2160 C.2    68  VAL68       0.2287
    104  O        -10.7070   26.0070   59.7570 O.2    68  VAL68      -0.2864
    105  CB        -8.4330   23.5850   60.1720 C.3    68  VAL68       0.0276
    106  CG1       -8.1160   24.2830   58.8840 C.3    68  VAL68       0.0022
    107  CG2       -7.1280   23.3060   60.9800 C.3    68  VAL68       0.0022
    108  N        -11.7130   31.8790   67.4290 N.3    82  LEU82      -0.1245
    109  CA       -11.0280   30.7240   68.0060 C.3    82  LEU82       0.1561
    110  C        -10.8340   30.8720   69.5100 C.2    82  LEU82       0.2260
    111  O        -10.0440   30.1460   70.0960 O.2    82  LEU82      -0.2867
    112  CB        -9.6580   30.5010   67.3060 C.3    82  LEU82       0.0270
    113  CG        -9.7660   30.1170   65.8240 C.3    82  LEU82       0.0019
    114  CD1       -8.3830   29.9070   65.1880 C.3    82  LEU82       0.0001
    115  CD2      -10.6340   28.9000   65.6000 C.3    82  LEU82       0.0001
    116  N        -11.1830   27.7400   71.6290 N.3    85  LEU85      -0.1245
    117  CA       -10.1140   26.7910   71.4120 C.3    85  LEU85       0.1561
    118  C         -8.8190   27.3280   72.0230 C.2    85  LEU85       0.2260
    119  O         -8.0070   26.5480   72.5110 O.2    85  LEU85      -0.2867
    120  CB        -9.9170   26.5540   69.9120 C.3    85  LEU85       0.0270
    121  CG       -10.1090   25.1600   69.3130 C.3    85  LEU85       0.0019
    122  CD1      -10.9440   24.2130   70.1760 C.3    85  LEU85       0.0001
    123  CD2      -10.6460   25.2920   67.8850 C.3    85  LEU85       0.0001
    124  N         -9.0640   26.5270   75.7100 N.3    88  LEU88      -0.1231
    125  CA        -8.7870   25.1160   75.9620 C.3    88  LEU88       0.1693
    126  C         -7.3010   24.8220   75.9360 C.2    88  LEU88       0.2592
    127  O         -6.7710   24.1480   76.7990 O.2    88  LEU88      -0.2718
    128  CB        -9.4640   24.2270   74.9220 C.3    88  LEU88       0.0284
    129  CG       -10.8540   23.6370   75.2430 C.3    88  LEU88       0.0019
    130  CD1      -11.2100   23.5680   76.7280 C.3    88  LEU88       0.0001
    131  CD2      -11.9110   24.3010   74.4280 C.3    88  LEU88       0.0001
    132  N         -6.6350   25.3140   74.8950 N.am   89  HIS89      -0.1976
    133  CA        -5.1950   25.0570   74.7430 C.3    89  HIS89       0.1656
    134  C         -4.3550   25.7400   75.8290 C.2    89  HIS89       0.2291
    135  O         -3.3630   25.1760   76.2760 O.2    89  HIS89      -0.2864
    136  CB        -4.7210   25.4270   73.3270 C.3    89  HIS89       0.0771
    137  CG        -5.1420   24.4120   72.3140 C.ar   89  HIS89       0.0820
    138  ND1       -6.4190   24.3940   71.7870 N.ar   89  HIS89      -0.2267
    139  CD2       -4.5240   23.2970   71.8510 C.ar   89  HIS89       0.1154
    140  CE1       -6.5270   23.3670   70.9550 C.ar   89  HIS89       0.1986
    141  NE2       -5.3880   22.6950   70.9670 N.ar   89  HIS89      -0.2212
    142  N         -5.0770   21.9400   78.1970 N.3    93  MET93      -0.1245
    143  CA        -3.9850   21.1370   77.6850 C.3    93  MET93       0.1570
    144  C         -2.6240   21.8040   77.9570 C.2    93  MET93       0.2261
    145  O         -1.6250   21.1130   78.1110 O.2    93  MET93      -0.2867
    146  CB        -4.1600   20.9030   76.1860 C.3    93  MET93       0.0387
    147  CG        -5.2650   19.8990   75.7800 C.3    93  MET93       0.0595
    148  SD        -6.8610   20.7070   75.7000 S.3    93  MET93      -0.1393
    149  CE        -6.8830   21.4720   74.0880 C.3    93  MET93       0.0692
    150  N         -0.5420   23.5310   75.9130 N.3    95  VAL95      -0.1245
    151  CA         0.4100   23.1580   74.8810 C.3    95  VAL95       0.1561
    152  C          1.3590   24.3460   74.6590 C.2    95  VAL95       0.2260
    153  O          0.8980   25.4700   74.4660 O.2    95  VAL95      -0.2867
    154  CB        -0.3520   22.8810   73.5390 C.3    95  VAL95       0.0252
    155  CG1        0.6260   22.6590   72.4020 C.3    95  VAL95       0.0019
    156  CG2       -1.2860   21.6610   73.7330 C.3    95  VAL95       0.0019
    157  N          4.6020   24.4380   69.2760 N.3    99  ASN99      -0.1225
    158  CA         4.1470   23.2450   68.5790 C.3    99  ASN99       0.1785
    159  C          3.1590   23.5200   67.4810 C.2    99  ASN99       0.2597
    160  O          3.0020   22.7140   66.5800 O.2    99  ASN99      -0.2718
    161  CB         3.5460   22.2360   69.5580 C.3    99  ASN99       0.1169
    162  CG         4.5810   21.7180   70.5420 C.2    99  ASN99       0.2627
    163  OD1        4.6460   22.1820   71.7010 O.2    99  ASN99      -0.2716
    164  ND2        5.4510   20.8200   70.0720 N.am   99  ASN99      -0.0877
    165  N          2.4720   24.6480   67.5490 N.am  100  PHE100     -0.1976
    166  CA         1.4440   24.9100   66.5280 C.3   100  PHE100      0.1639
    167  C          2.1070   25.0270   65.1580 C.2   100  PHE100      0.2290
    168  O          1.5410   24.6110   64.1680 O.2   100  PHE100     -0.2864
    169  CB         0.6760   26.1990   66.8310 C.3   100  PHE100      0.0560
    170  CG        -0.0880   26.1600   68.1060 C.ar  100  PHE100     -0.0200
    171  CD1       -0.1850   27.2920   68.8970 C.ar  100  PHE100     -0.0042
    172  CD2       -0.7550   25.0180   68.4950 C.ar  100  PHE100     -0.0042
    173  CE1       -0.8720   27.2690   70.0670 C.ar  100  PHE100     -0.0003
    174  CE2       -1.4690   24.9870   69.6740 C.ar  100  PHE100     -0.0003
    175  CZ        -1.5320   26.1190   70.4650 C.ar  100  PHE100     -0.0000
    176  N          2.6420   21.5150   63.6370 N.3   103  LEU103     -0.1231
    177  CA         1.4170   20.9300   63.0610 C.3   103  LEU103      0.1693
    178  C          1.0610   21.6360   61.7840 C.2   103  LEU103      0.2592
    179  O          0.6500   20.9700   60.8090 O.2   103  LEU103     -0.2718
    180  CB         0.2470   20.9880   64.0190 C.3   103  LEU103      0.0284
    181  CG        -1.0400   20.3130   63.4740 C.3   103  LEU103      0.0019
    182  CD1       -0.7920   18.9060   63.0030 C.3   103  LEU103      0.0001
    183  CD2       -2.0980   20.3470   64.5510 C.3   103  LEU103      0.0001
    184  N          1.2540   22.9550   61.7680 N.am  104  SER104     -0.1952
    185  CA         1.0110   23.7210   60.5490 C.3   104  SER104      0.1924
    186  C          1.8270   23.2130   59.3800 C.2   104  SER104      0.2314
    187  O          1.3040   23.0540   58.2810 O.2   104  SER104     -0.2863
    188  CB         1.2530   25.2150   60.7390 C.3   104  SER104      0.2116
    189  OG         0.4010   25.6690   61.7570 O.3   104  SER104     -0.2180
    190  N         -2.4520   29.6460   58.5010 N.3   131  LEU131     -0.1245
    191  CA        -2.1530   28.7680   59.6370 C.3   131  LEU131      0.1561
    192  C         -1.3550   29.5370   60.6770 C.2   131  LEU131      0.2260
    193  O         -1.4850   29.2560   61.8600 O.2   131  LEU131     -0.2867
    194  CB        -1.4720   27.4840   59.1610 C.3   131  LEU131      0.0270
    195  CG        -2.4210   26.5580   58.3880 C.3   131  LEU131      0.0019
    196  CD1       -1.5850   25.4870   57.7470 C.3   131  LEU131      0.0001
    197  CD2       -3.5030   25.9460   59.2410 C.3   131  LEU131      0.0001
    198  N         -3.9550   31.3300   62.6300 N.3   134  VAL134     -0.1231
    199  CA        -4.6440   30.3940   63.4870 C.3   134  VAL134      0.1692
    200  C         -3.7900   30.1240   64.7240 C.2   134  VAL134      0.2591
    201  O         -4.2880   30.1260   65.8360 O.2   134  VAL134     -0.2718
    202  CB        -4.9290   29.0820   62.7680 C.3   134  VAL134      0.0266
    203  CG1       -5.3930   27.9960   63.7420 C.3   134  VAL134      0.0020
    204  CG2       -5.9510   29.2980   61.6890 C.3   134  VAL134      0.0020
    205  N         -2.4940   29.9120   64.5180 N.am  135  ALA135     -0.1980
    206  CA        -1.6140   29.6470   65.6540 C.3   135  ALA135      0.1597
    207  C         -1.6050   30.8290   66.5960 C.2   135  ALA135      0.2287
    208  O         -1.5820   30.6520   67.8190 O.2   135  ALA135     -0.2864
    209  CB        -0.1890   29.3300   65.1430 C.3   135  ALA135      0.0319
    210  N         -4.8190   30.8790   68.5470 N.3   138  LEU138     -0.1245
    211  CA        -4.7900   29.8740   69.6000 C.3   138  LEU138      0.1561
    212  C         -3.9370   30.2880   70.7900 C.2   138  LEU138      0.2260
    213  O         -4.2390   29.9100   71.9150 O.2   138  LEU138     -0.2867
    214  CB        -4.3480   28.5240   69.0510 C.3   138  LEU138      0.0270
    215  CG        -5.3060   27.8890   68.0640 C.3   138  LEU138      0.0019
    216  CD1       -4.6550   26.6120   67.5840 C.3   138  LEU138      0.0001
    217  CD2       -6.6500   27.5790   68.7000 C.3   138  LEU138      0.0001
@<TRIPOS>BOND
     1   196   195    1
     2   187   186    2
     3   195   194    1
     4   195   197    1
     5   190   191    1
     6   106   105    1
     7   194   191    1
     8   186   185    1
     9   191   192    1
    10   104   103    2
    11   105   107    1
    12   105   102    1
    13   103   102    1
    14   185   188    1
    15   185   184    1
    16   192   193    2
    17   188   189    1
    18   179   178    2
    19   102   101    1
    20     1     2    1
    21   204   202    1
    22   184   178   am
    23   178   177    1
    24   101    99   am
    25     9    10    1
    26   198   199    1
    27   202   199    1
    28   202   203    1
    29   182   181    1
    30     2     3    1
    31     2     5    1
    32   177   176    1
    33   177   180    1
    34   100    99    2
    35    99    98    1
    36     3     4    2
    37    93    92    2
    38    92    91    1
    39    10    13    1
    40    10    11    1
    41   181   180    1
    42   181   183    1
    43   199   200    1
    44     5     6    1
    45    97    98    1
    46    95    94    1
    47    13    14    1
    48   168   167    2
    49     8     6    1
    50   205   200   am
    51   205   206    1
    52    11    12    2
    53    94    91    1
    54    94    96    1
    55    91    90    1
    56    81    82    1
    57   200   201    2
    58     6     7    1
    59    90    83   am
    60   209   206    1
    61   167   166    1
    62    14    15    1
    63   114   113    1
    64    84    83    2
    65    83    82    1
    66   115   113    1
    67    82    85    1
    68    74    73    2
    69    73    72    1
    70   206   207    1
    71   113   112    1
    72    15    16    1
    73   166   169    1
    74   166   165    1
    75   160   159    2
    76    71    72    1
    77   207   208    2
    78   169   170    1
    79    72    75    1
    80    85    86    1
    81   112   109    1
    82   108   109    1
    83   159   165   am
    84   159   158    1
    85   216   215    1
    86    86    87    1
    87    75    76    1
    88   123   121    1
    89   109   110    1
    90    22    21    1
    91   215   217    1
    92   215   214    1
    93   170   172   ar
    94   170   171   ar
    95    23    21    1
    96    78    76   ar
    97    78    80   ar
    98    76    77   ar
    99   172   174   ar
   100   210   211    1
   101   158   157    1
   102   158   161    1
   103    21    18    1
   104   171   173   ar
   105    80    79   ar
   106   214   211    1
   107    77    79   ar
   108    87    88    1
   109    69    70   ar
   110    69    67   ar
   111   121   120    1
   112   121   122    1
   113    70    68   ar
   114   110   111    2
   115   161   162    1
   116   211   212    1
   117   174   175   ar
   118    88    89    1
   119   120   117    1
   120    17    18    1
   121   173   175   ar
   122   164   162   am
   123    18    19    1
   124    67    64   ar
   125    46    44   ar
   126    46    45   ar
   127    68    66   ar
   128    44    42   ar
   129   162   163    2
   130   212   213    2
   131    19    20    2
   132   140   141   ar
   133   140   138   ar
   134    45    43   ar
   135   141   139   ar
   136    42    41   ar
   137   117   116    1
   138   117   118    1
   139    64    66   ar
   140    64    62   ar
   141    66    65   ar
   142    43    41   ar
   143    41    40    1
   144   138   137   ar
   145   139   137   ar
   146   118   119    2
   147   137   136    1
   148   155   154    1
   149    40    37    1
   150    62    61    1
   151    62    63   ar
   152    65    63   ar
   153    61    58    1
   154   136   133    1
   155   154   156    1
   156   154   151    1
   157    31    33   ar
   158    31    29   ar
   159    33    34   ar
   160    37    36    1
   161    37    38    1
   162   149   148    1
   163    28    29    1
   164    28    25    1
   165    39    38    2
   166    59    58    1
   167    59    60    2
   168    58    57    1
   169    36    26   am
   170    29    30   ar
   171   131   129    1
   172   153   152    2
   173    24    25    1
   174   152   151    1
   175   133   132    1
   176   133   134    1
   177   151   150    1
   178    26    25    1
   179    26    27    2
   180   132   126   am
   181   128   129    1
   182   128   125    1
   183    34    35    1
   184    34    32   ar
   185   129   130    1
   186    57    49   am
   187    30    32   ar
   188   148   147    1
   189   124   125    1
   190   147   146    1
   191   134   135    2
   192   126   125    1
   193   126   127    2
   194    56    55   ar
   195    56    54   ar
   196    55    53   ar
   197   146   143    1
   198    49    50    2
   199    49    48    1
   200    54    52   ar
   201    53    52   ar
   202    47    48    1
   203    52    51    1
   204   143   144    1
   205   143   142    1
   206    48    51    1
   207   144   145    2
