@<TRIPOS>MOLECULE
tmp/1v4xD00.pdb
 227 214 0 0 0
SMALL
GASTEIGER

@<TRIPOS>ATOM
      1  N         24.3190   13.5220    3.3490 N.3    28  LEU28      -0.1245
      2  CA        25.0500   12.4340    3.9850 C.3    28  LEU28       0.1561
      3  C         26.2370   12.9120    4.8050 C.2    28  LEU28       0.2260
      4  O         26.4960   12.3940    5.8800 O.2    28  LEU28      -0.2867
      5  CB        25.5040   11.3950    2.9380 C.3    28  LEU28       0.0270
      6  CG        26.1820   10.1430    3.5020 C.3    28  LEU28       0.0019
      7  CD1       25.2580    9.4350    4.5370 C.3    28  LEU28       0.0001
      8  CD2       26.4140    9.2260    2.3730 C.3    28  LEU28       0.0001
      9  N         25.0400   14.3550    7.9660 N.3    31  CYS31      -0.1235
     10  CA        24.5790   13.2750    8.8660 C.3    31  CYS31       0.1677
     11  C         25.7340   12.5990    9.6400 C.2    31  CYS31       0.2270
     12  O         25.6110   12.3000   10.8700 O.2    31  CYS31      -0.2867
     13  CB        23.8120   12.2170    8.0880 C.3    31  CYS31       0.0956
     14  SG        23.1890   10.8200    9.1170 S.3    31  CYS31      -0.0801
     15  N         26.7670    7.1660   12.7780 N.3    38  THR38      -0.1218
     16  CA        26.4100    6.7270   11.4250 C.3    38  THR38       0.1862
     17  C         27.6200    6.4260   10.5680 C.2    38  THR38       0.2287
     18  O         27.4830    5.9030    9.4310 O.2    38  THR38      -0.2866
     19  CB        25.5190    7.7400   10.6390 C.3    38  THR38       0.1770
     20  OG1       26.1780    9.0150   10.5610 O.3    38  THR38      -0.2211
     21  CG2       24.2540    8.0010   11.3710 C.3    38  THR38       0.0375
     22  N         29.1460    2.3690    9.2830 N.3    41  TYR41      -0.1227
     23  CA        28.9800    1.5880    8.0670 C.3    41  TYR41       0.1736
     24  C         30.0080    1.9070    6.9940 C.2    41  TYR41       0.2595
     25  O         30.0490    1.2550    5.9660 O.2    41  TYR41      -0.2718
     26  CB        27.5540    1.8160    7.5530 C.3    41  TYR41       0.0548
     27  CG        26.5450    1.7020    8.6860 C.ar   41  TYR41      -0.0200
     28  CD1       26.1440    0.4550    9.1620 C.ar   41  TYR41      -0.0009
     29  CD2       26.0400    2.8500    9.3320 C.ar   41  TYR41      -0.0009
     30  CE1       25.2580    0.3310   10.2030 C.ar   41  TYR41       0.0417
     31  CE2       25.1400    2.7220   10.3700 C.ar   41  TYR41       0.0417
     32  CZ        24.7530    1.4680   10.7950 C.ar   41  TYR41       0.1957
     33  OH        23.8670    1.3060   11.8420 O.3    41  TYR41      -0.2866
     34  N         30.8250    2.9230    7.2360 N.am   42  PHE42      -0.1976
     35  CA        31.6450    3.4920    6.1890 C.3    42  PHE42       0.1639
     36  C         33.1290    3.3260    6.4520 C.2    42  PHE42       0.2290
     37  O         33.9230    4.1980    6.0790 O.2    42  PHE42      -0.2864
     38  CB        31.2280    4.9450    5.9500 C.3    42  PHE42       0.0560
     39  CG        29.7950    5.0840    5.5250 C.ar   42  PHE42      -0.0200
     40  CD1       29.3950    4.7130    4.2460 C.ar   42  PHE42      -0.0042
     41  CD2       28.8390    5.5720    6.4090 C.ar   42  PHE42      -0.0042
     42  CE1       28.0560    4.8250    3.8380 C.ar   42  PHE42      -0.0003
     43  CE2       27.4810    5.6870    6.0160 C.ar   42  PHE42      -0.0003
     44  CZ        27.0940    5.3220    4.7230 C.ar   42  PHE42      -0.0000
     45  N         35.1540    3.4010    3.4480 N.3    45  TYR45      -0.1241
     46  CA        35.0540    4.6560    2.6770 C.3    45  TYR45       0.1605
     47  C         36.2180    5.6070    2.8470 C.2    45  TYR45       0.2264
     48  O         36.2430    6.6570    2.2200 O.2    45  TYR45      -0.2867
     49  CB        33.6840    5.3530    2.8580 C.3    45  TYR45       0.0534
     50  CG        32.5700    4.5690    2.1930 C.ar   45  TYR45      -0.0201
     51  CD1       32.2750    3.2690    2.6090 C.ar   45  TYR45      -0.0009
     52  CD2       31.8310    5.1060    1.1370 C.ar   45  TYR45      -0.0009
     53  CE1       31.2970    2.5330    2.0030 C.ar   45  TYR45       0.0417
     54  CE2       30.8160    4.3550    0.5190 C.ar   45  TYR45       0.0417
     55  CZ        30.5710    3.0730    0.9610 C.ar   45  TYR45       0.1957
     56  OH        29.5930    2.3060    0.3940 O.3    45  TYR45      -0.2866
     57  N         28.1200    8.0790   -2.3810 N.3    63  HIS63      -0.1241
     58  CA        27.0940    7.3810   -1.6480 C.3    63  HIS63       0.1621
     59  C         25.8900    8.2500   -1.3330 C.2    63  HIS63       0.2264
     60  O         24.7830    7.7700   -1.4700 O.2    63  HIS63      -0.2867
     61  CB        27.6220    6.7060   -0.3820 C.3    63  HIS63       0.0745
     62  CG        26.6340    5.7500    0.2110 C.ar   63  HIS63       0.0817
     63  ND1       26.2320    4.6040   -0.4400 N.ar   63  HIS63      -0.2268
     64  CD2       25.9140    5.8030    1.3620 C.ar   63  HIS63       0.1154
     65  CE1       25.3250    3.9800    0.2910 C.ar   63  HIS63       0.1986
     66  NE2       25.1230    4.6790    1.3960 N.ar   63  HIS63      -0.2212
     67  N         23.8950    8.1890   -4.3820 N.3    66  LYS66      -0.1231
     68  CA        23.2190    6.9070   -4.4670 C.3    66  LYS66       0.1693
     69  C         21.9730    6.8480   -3.5400 C.2    66  LYS66       0.2591
     70  O         20.9010    6.3820   -3.9710 O.2    66  LYS66      -0.2718
     71  CB        24.2100    5.7600   -4.1690 C.3    66  LYS66       0.0285
     72  CG        23.9720    4.4530   -4.9230 C.3    66  LYS66       0.0035
     73  CD        25.0480    3.3780   -4.5620 C.3    66  LYS66       0.0206
     74  CE        26.4940    3.8590   -4.9040 C.3    66  LYS66       0.1093
     75  NZ        26.6700    4.1760   -6.3770 N.3    66  LYS66      -0.1314
     76  N         22.1310    7.2770   -2.2860 N.am   67  VAL67      -0.1980
     77  CA        21.0230    7.2490   -1.3000 C.3    67  VAL67       0.1595
     78  C         19.9270    8.2010   -1.7650 C.2    67  VAL67       0.2287
     79  O         18.7650    7.8240   -1.7720 O.2    67  VAL67      -0.2864
     80  CB        21.5280    7.6430    0.1110 C.3    67  VAL67       0.0276
     81  CG1       20.3980    8.1060    1.0140 C.3    67  VAL67       0.0022
     82  CG2       22.2740    6.4700    0.7360 C.3    67  VAL67       0.0022
     83  N         18.0000    6.8800   -4.3420 N.3    70  GLY70      -0.1210
     84  CA        17.1450    5.8840   -3.7040 C.3    70  GLY70       0.1956
     85  C         15.7190    6.3170   -3.3540 C.2    70  GLY70       0.2611
     86  O         14.8530    5.4640   -3.2030 O.2    70  GLY70      -0.2717
     87  N         15.4760    7.6190   -3.2340 N.am   71  LEU71      -0.1979
     88  CA        14.1310    8.1300   -3.0430 C.3    71  LEU71       0.1596
     89  C         13.3440    8.1550   -4.3570 C.2    71  LEU71       0.2287
     90  O         12.1210    8.2860   -4.3240 O.2    71  LEU71      -0.2864
     91  CB        14.1690    9.5300   -2.3940 C.3    71  LEU71       0.0297
     92  CG        14.8100    9.5700   -0.9750 C.3    71  LEU71       0.0022
     93  CD1       14.8970   11.0070   -0.4610 C.3    71  LEU71       0.0001
     94  CD2       14.0030    8.7060    0.0470 C.3    71  LEU71       0.0001
     95  N         12.4370    5.9740   -6.6530 N.3    73  ARG73      -0.1197
     96  CA        11.4180    4.9450   -6.7550 C.3    73  ARG73       0.1779
     97  C         10.1680    5.2760   -5.9160 C.2    73  ARG73       0.2305
     98  O          9.0700    4.9690   -6.3570 O.2    73  ARG73      -0.2863
     99  CB        11.9720    3.5430   -6.4620 C.2    73  ARG73      -0.0007
    100  CG        12.6100    3.2960   -5.0600 C.2    73  ARG73       0.0176
    101  CD        13.5080    2.0410   -4.9370 C.3    73  ARG73       0.2464
    102  NE        14.8630    2.2430   -5.4600 N.pl3  73  ARG73      -0.0815
    103  CZ        15.8810    1.4100   -5.2720 C.cat  73  ARG73       0.5349
    104  NH1       15.7140    0.3000   -4.5600 N.pl3  73  ARG73       0.1354
    105  NH2       17.0770    1.6850   -5.8040 N.pl3  73  ARG73       0.1354
    106  N          9.9650   -0.4950   -1.5580 N.3    85  TYR85      -0.1241
    107  CA        11.1460   -0.4990   -0.7160 C.3    85  TYR85       0.1605
    108  C         11.4050   -1.8450   -0.0260 C.2    85  TYR85       0.2264
    109  O         12.3640   -1.9860    0.7240 O.2    85  TYR85      -0.2867
    110  CB        11.1360    0.7160    0.2570 C.3    85  TYR85       0.0534
    111  CG        11.5320    2.0060   -0.4540 C.ar   85  TYR85      -0.0201
    112  CD1       10.6650    2.6190   -1.3600 C.ar   85  TYR85      -0.0009
    113  CD2       12.8000    2.5530   -0.3100 C.ar   85  TYR85      -0.0009
    114  CE1       11.0420    3.7860   -2.0480 C.ar   85  TYR85       0.0417
    115  CE2       13.1730    3.7040   -0.9730 C.ar   85  TYR85       0.0417
    116  CZ        12.3000    4.3160   -1.8350 C.ar   85  TYR85       0.1957
    117  OH        12.6620    5.4570   -2.5110 O.3    85  TYR85      -0.2866
    118  N         14.8330   -3.1850   -0.7550 N.3    88  LEU88      -0.1245
    119  CA        15.8610   -2.3350   -0.1570 C.3    88  LEU88       0.1561
    120  C         15.8670   -2.4730    1.3770 C.2    88  LEU88       0.2260
    121  O         16.8860   -2.3270    2.0170 O.2    88  LEU88      -0.2867
    122  CB        15.7080   -0.8790   -0.6170 C.3    88  LEU88       0.0270
    123  CG        16.9680   -0.0060   -0.5380 C.3    88  LEU88       0.0019
    124  CD1       18.1340   -0.5770   -1.3630 C.3    88  LEU88       0.0001
    125  CD2       16.6090    1.3850   -1.0020 C.3    88  LEU88       0.0001
    126  N         17.7940   -5.6060    2.0960 N.3    91  LEU91      -0.1231
    127  CA        19.2200   -5.3480    1.9390 C.3    91  LEU91       0.1693
    128  C         19.8260   -4.6710    3.1890 C.2    91  LEU91       0.2592
    129  O         20.8250   -5.1400    3.7530 O.2    91  LEU91      -0.2718
    130  CB        19.4510   -4.4790    0.7040 C.3    91  LEU91       0.0284
    131  CG        20.9170   -4.1190    0.3610 C.3    91  LEU91       0.0019
    132  CD1       21.6780   -5.3210   -0.2220 C.3    91  LEU91       0.0001
    133  CD2       21.0230   -2.9400   -0.5970 C.3    91  LEU91       0.0001
    134  N         19.2410   -3.5490    3.5890 N.am   92  HIS92      -0.1976
    135  CA        19.7800   -2.7450    4.6930 C.3    92  HIS92       0.1656
    136  C         19.7840   -3.5530    5.9830 C.2    92  HIS92       0.2291
    137  O         20.7170   -3.4780    6.7740 O.2    92  HIS92      -0.2864
    138  CB        18.9900   -1.4380    4.8340 C.3    92  HIS92       0.0771
    139  CG        19.4340   -0.3750    3.8900 C.ar   92  HIS92       0.0820
    140  ND1       18.9570   -0.2840    2.5960 N.ar   92  HIS92      -0.2267
    141  CD2       20.3610    0.6010    4.0250 C.ar   92  HIS92       0.1154
    142  CE1       19.5660    0.7100    1.9780 C.ar   92  HIS92       0.1986
    143  NE2       20.4190    1.2650    2.8200 N.ar   92  HIS92      -0.2212
    144  N         23.4990   -5.3050    5.1100 N.3    96  LEU96      -0.1245
    145  CA        24.2230   -4.1310    5.5850 C.3    96  LEU96       0.1561
    146  C         24.1750   -3.8650    7.1050 C.2    96  LEU96       0.2260
    147  O         25.0460   -3.2010    7.6680 O.2    96  LEU96      -0.2867
    148  CB        23.7250   -2.9080    4.8040 C.3    96  LEU96       0.0270
    149  CG        23.6010   -3.0710    3.2920 C.3    96  LEU96       0.0019
    150  CD1       22.9830   -1.8140    2.6930 C.3    96  LEU96       0.0001
    151  CD2       25.0230   -3.2750    2.7050 C.3    96  LEU96       0.0001
    152  N         22.2430   -1.9250    8.8530 N.3    98  VAL98      -0.1245
    153  CA        22.0880   -0.5200    9.1930 C.3    98  VAL98       0.1561
    154  C         20.9140   -0.4130   10.1830 C.2    98  VAL98       0.2260
    155  O         19.8190   -0.8800    9.8970 O.2    98  VAL98      -0.2867
    156  CB        21.8660    0.3330    7.9270 C.3    98  VAL98       0.0252
    157  CG1       21.3450    1.6930    8.3090 C.3    98  VAL98       0.0019
    158  CG2       23.2050    0.5020    7.1500 C.3    98  VAL98       0.0019
    159  N         18.7050    5.2820   11.8910 N.3   102  ASN102     -0.1225
    160  CA        19.5050    6.1670   11.0920 C.3   102  ASN102      0.1785
    161  C         18.8040    6.7030    9.8500 C.2   102  ASN102      0.2597
    162  O         19.2190    7.7320    9.3150 O.2   102  ASN102     -0.2718
    163  CB        20.8100    5.4820   10.7150 C.3   102  ASN102      0.1169
    164  CG        21.6530    5.1840   11.9310 C.2   102  ASN102      0.2627
    165  OD1       21.6500    5.9290   12.9210 O.2   102  ASN102     -0.2716
    166  ND2       22.2720    4.0450   11.9160 N.am  102  ASN102     -0.0877
    167  N         17.7640    6.0070    9.3860 N.am  103  PHE103     -0.1976
    168  CA        17.0040    6.5090    8.2510 C.3   103  PHE103      0.1639
    169  C         16.3080    7.8050    8.6350 C.2   103  PHE103      0.2290
    170  O         16.3080    8.7600    7.8940 O.2   103  PHE103     -0.2864
    171  CB        15.9450    5.4950    7.8500 C.3   103  PHE103      0.0560
    172  CG        16.4930    4.1710    7.3870 C.ar  103  PHE103     -0.0200
    173  CD1       15.7850    3.0200    7.6550 C.ar  103  PHE103     -0.0042
    174  CD2       17.6570    4.0940    6.6500 C.ar  103  PHE103     -0.0042
    175  CE1       16.2480    1.7520    7.2220 C.ar  103  PHE103     -0.0003
    176  CE2       18.1240    2.8640    6.1690 C.ar  103  PHE103     -0.0003
    177  CZ        17.4370    1.6870    6.4610 C.ar  103  PHE103     -0.0000
    178  N         18.8220   10.6510    8.9480 N.3   106  LEU106     -0.1231
    179  CA        19.3240   11.1270    7.6610 C.3   106  LEU106      0.1693
    180  C         18.2420   11.9710    7.0360 C.2   106  LEU106      0.2592
    181  O         18.5360   13.0460    6.4990 O.2   106  LEU106     -0.2718
    182  CB        19.6580    9.9510    6.7360 C.3   106  LEU106      0.0284
    183  CG        20.6190   10.0740    5.5120 C.3   106  LEU106      0.0019
    184  CD1       20.2360    9.2210    4.3270 C.3   106  LEU106      0.0001
    185  CD2       21.0020   11.4540    5.1050 C.3   106  LEU106      0.0001
    186  N         16.9850   11.5150    7.1070 N.am  107  GLY107     -0.1957
    187  CA        15.9020   12.3360    6.5900 C.3   107  GLY107      0.1869
    188  C         15.8800   13.7570    7.2020 C.2   107  GLY107      0.2309
    189  O         15.5400   14.7760    6.5560 O.2   107  GLY107     -0.2863
    190  N         18.5720   15.6300    5.5490 N.3   110  LEU110     -0.1245
    191  CA        18.1450   15.9510    4.1720 C.3   110  LEU110      0.1561
    192  C         17.1960   17.1710    4.1860 C.2   110  LEU110      0.2260
    193  O         17.2660   18.0630    3.3160 O.2   110  LEU110     -0.2867
    194  CB        17.4160   14.7340    3.5720 C.3   110  LEU110      0.0270
    195  CG        16.9760   14.9100    2.1280 C.3   110  LEU110      0.0019
    196  CD1       18.2040   15.4550    1.3110 C.3   110  LEU110      0.0001
    197  CD2       16.4890   13.5990    1.6030 C.3   110  LEU110      0.0001
    198  N          8.9610   11.6530    3.7650 N.3   134  LEU134     -0.1245
    199  CA        10.0480   11.0020    4.4990 C.3   134  LEU134      0.1561
    200  C          9.5410    9.9780    5.5230 C.2   134  LEU134      0.2260
    201  O         10.0710    8.8840    5.5890 O.2   134  LEU134     -0.2867
    202  CB        10.9470   12.0320    5.1780 C.3   134  LEU134      0.0270
    203  CG        11.7630   12.8710    4.1910 C.3   134  LEU134      0.0019
    204  CD1       12.5230   13.9020    5.0410 C.3   134  LEU134      0.0001
    205  CD2       12.7250   12.0660    3.2920 C.3   134  LEU134      0.0001
    206  N          8.5940    6.8350    3.5620 N.3   137  VAL137     -0.1231
    207  CA         9.7910    6.1580    3.0730 C.3   137  VAL137      0.1692
    208  C         10.5510    5.4860    4.2030 C.2   137  VAL137      0.2591
    209  O         10.9540    4.3440    4.0610 O.2   137  VAL137     -0.2718
    210  CB        10.7330    7.1270    2.3160 C.3   137  VAL137      0.0266
    211  CG1       12.0510    6.4320    1.9760 C.3   137  VAL137      0.0020
    212  CG2       10.0700    7.6080    1.0240 C.3   137  VAL137      0.0020
    213  N         10.7150    6.1690    5.3450 N.am  138  VAL138     -0.1980
    214  CA        11.5040    5.6180    6.4510 C.3   138  VAL138      0.1595
    215  C         10.8030    4.4040    7.0470 C.2   138  VAL138      0.2287
    216  O         11.4430    3.4000    7.3990 O.2   138  VAL138     -0.2864
    217  CB        11.7710    6.6920    7.5430 C.3   138  VAL138      0.0276
    218  CG1       12.2100    6.0620    8.8350 C.3   138  VAL138      0.0022
    219  CG2       12.8020    7.7160    7.0540 C.3   138  VAL138      0.0022
    220  N         11.2960    1.5210    4.6700 N.3   141  LEU141     -0.1245
    221  CA        12.6360    0.9620    4.7300 C.3   141  LEU141      0.1561
    222  C         12.8700    0.1530    6.0030 C.2   141  LEU141      0.2260
    223  O         13.7410   -0.6830    6.0200 O.2   141  LEU141     -0.2867
    224  CB        13.6920    2.0540    4.6090 C.3   141  LEU141      0.0270
    225  CG        14.0550    2.5990    3.2470 C.3   141  LEU141      0.0019
    226  CD1       14.6610    3.9690    3.6020 C.3   141  LEU141      0.0001
    227  CD2       15.0610    1.7030    2.5000 C.3   141  LEU141      0.0001
@<TRIPOS>BOND
     1    96    95    1
     2    96    99    1
     3    96    97    1
     4    99   100    2
     5    75    74    1
     6    98    97    2
     7   105   103    1
     8   102   103    2
     9   102   101    1
    10   103   104    1
    11   100   101    1
    12    72    73    1
    13    72    71    1
    14    74    73    1
    15    68    67    1
    16    68    71    1
    17    68    69    1
    18    89    90    2
    19    89    88    1
    20    83    84    1
    21    70    69    2
    22    84    85    1
    23    69    76   am
    24    85    87   am
    25    85    86    2
    26    87    88    1
    27    88    91    1
    28   117   116    1
    29    91    92    1
    30    57    58    1
    31    76    77    1
    32   114   116   ar
    33   114   112   ar
    34   116   115   ar
    35    79    78    2
    36    78    77    1
    37    58    59    1
    38    58    61    1
    39   106   107    1
    40    60    59    2
    41   124   123    1
    42   112   111   ar
    43    77    80    1
    44   125   123    1
    45    92    93    1
    46    92    94    1
    47   115   113   ar
    48   118   119    1
    49   107   108    1
    50   107   110    1
    51   122   123    1
    52   122   119    1
    53   133   131    1
    54   111   113   ar
    55   111   110    1
    56    63    62   ar
    57    63    65   ar
    58    61    62    1
    59   132   131    1
    60   119   120    1
    61   108   109    2
    62    80    82    1
    63    80    81    1
    64    62    64   ar
    65    65    66   ar
    66   131   130    1
    67    56    55    1
    68    54    55   ar
    69    54    52   ar
    70   130   127    1
    71    55    53   ar
    72   212   210    1
    73    52    50   ar
    74   196   195    1
    75    64    66   ar
    76   120   121    2
    77   197   195    1
    78   127   126    1
    79   127   128    1
    80   211   210    1
    81   142   140   ar
    82   142   143   ar
    83    53    51   ar
    84   195   194    1
    85    50    51   ar
    86    50    49    1
    87    48    47    2
    88   210   207    1
    89     8     6    1
    90   227   225    1
    91   140   139   ar
    92    46    47    1
    93    46    49    1
    94    46    45    1
    95   150   149    1
    96   151   149    1
    97   143   141   ar
    98     5     6    1
    99     5     2    1
   100   207   206    1
   101   207   208    1
   102   128   134   am
   103   128   129    2
   104   225   226    1
   105   225   224    1
   106   205   203    1
   107   149   148    1
   108   193   192    2
   109     1     2    1
   110     6     7    1
   111   194   191    1
   112   134   135    1
   113   198   199    1
   114    42    40   ar
   115    42    44   ar
   116   139   141   ar
   117   139   138    1
   118     2     3    1
   119   209   208    2
   120   191   192    1
   121   191   190    1
   122   203   204    1
   123   203   202    1
   124   208   213   am
   125    40    39   ar
   126   184   183    1
   127   199   202    1
   128   199   200    1
   129   224   221    1
   130   220   221    1
   131   135   138    1
   132   135   136    1
   133    44    43   ar
   134   221   222    1
   135   148   145    1
   136     3     4    2
   137   185   183    1
   138   144   145    1
   139   213   214    1
   140   183   182    1
   141   200   201    2
   142    39    38    1
   143    39    41   ar
   144   145   146    1
   145    38    35    1
   146    25    24    2
   147   136   137    2
   148   222   223    2
   149    43    41   ar
   150    37    36    2
   151   176   177   ar
   152   176   174   ar
   153    35    36    1
   154    35    34    1
   155   214   215    1
   156   214   217    1
   157   177   175   ar
   158   181   180    2
   159   189   188    2
   160   187   186    1
   161   187   188    1
   162   174   172   ar
   163   182   179    1
   164    24    34   am
   165    24    23    1
   166   180   186   am
   167   180   179    1
   168   215   216    2
   169   219   217    1
   170   146   147    2
   171   158   156    1
   172   175   173   ar
   173   172   173   ar
   174   172   171    1
   175   217   218    1
   176    26    23    1
   177    26    27    1
   178   179   178    1
   179   171   168    1
   180   170   169    2
   181   156   157    1
   182   156   153    1
   183     9    10    1
   184    23    22    1
   185    13    10    1
   186    13    14    1
   187   168   169    1
   188   168   167    1
   189    27    28   ar
   190    27    29   ar
   191   152   153    1
   192    10    11    1
   193    28    30   ar
   194   153   154    1
   195   162   161    2
   196    29    31   ar
   197   167   161   am
   198    18    17    2
   199    11    12    2
   200   161   160    1
   201   155   154    2
   202    30    32   ar
   203    31    32   ar
   204    20    19    1
   205    17    16    1
   206    19    21    1
   207    19    16    1
   208   163   160    1
   209   163   164    1
   210    32    33    1
   211   160   159    1
   212    16    15    1
   213   166   164   am
   214   164   165    2
