@<TRIPOS>MOLECULE
tmp/1v55T02.pdb
 105 103 0 0 0
SMALL
GASTEIGER

@<TRIPOS>ATOM
      1  N         76.0880  305.1290  203.9430 N.3     5  LYS5       -0.1245
      2  CA        75.8490  304.3090  205.1300 C.3     5  LYS5        0.1561
      3  C         75.7030  305.2480  206.3610 C.2     5  LYS5        0.2260
      4  O         74.8810  306.1650  206.3080 O.2     5  LYS5       -0.2867
      5  CB        76.9820  303.2410  205.2630 C.3     5  LYS5        0.0271
      6  CG        77.1950  302.3230  203.9650 C.3     5  LYS5        0.0035
      7  CD        77.8130  300.9140  204.2390 C.3     5  LYS5        0.0206
      8  CE        77.6380  299.9250  203.0600 C.3     5  LYS5        0.1093
      9  NZ        77.4790  298.4780  203.4960 N.3     5  LYS5       -0.1314
     10  N         84.7400  294.8990  211.1080 N.3    16  ARG16      -0.1245
     11  CA        84.4130  293.5220  210.7590 C.3    16  ARG16       0.1563
     12  C         83.1180  293.5610  209.9160 C.2    16  ARG16       0.2260
     13  O         82.9460  292.8200  208.9440 O.2    16  ARG16      -0.2867
     14  CB        84.1760  292.7260  212.0260 C.3    16  ARG16       0.0307
     15  CG        83.9790  291.2650  211.7670 C.3    16  ARG16       0.0489
     16  CD        82.7630  290.8590  212.4910 C.3    16  ARG16       0.2205
     17  NE        83.0010  289.7730  213.4100 N.pl3  16  ARG16      -0.0865
     18  CZ        82.2410  289.5220  214.4670 C.cat  16  ARG16       0.5346
     19  NH1       81.1950  290.2880  214.7520 N.pl3  16  ARG16       0.1354
     20  NH2       82.5080  288.4690  215.2180 N.pl3  16  ARG16       0.1354
     21  N         82.8210  291.8840  206.1150 N.3    20  PHE20      -0.1227
     22  CA        81.8250  290.9020  205.7060 C.3    20  PHE20       0.1736
     23  C         80.5750  291.4490  205.0050 C.2    20  PHE20       0.2596
     24  O         79.9390  290.7430  204.2350 O.2    20  PHE20      -0.2718
     25  CB        81.4090  290.0980  206.9290 C.3    20  PHE20       0.0547
     26  CG        82.5090  289.2740  207.5020 C.ar   20  PHE20      -0.0202
     27  CD1       82.7310  289.2440  208.8630 C.ar   20  PHE20      -0.0042
     28  CD2       83.2980  288.4840  206.6800 C.ar   20  PHE20      -0.0042
     29  CE1       83.7200  288.4320  209.4050 C.ar   20  PHE20      -0.0003
     30  CE2       84.2910  287.6670  207.2150 C.ar   20  PHE20      -0.0003
     31  CZ        84.4990  287.6430  208.5750 C.ar   20  PHE20      -0.0000
     32  N         80.2270  292.7000  205.2790 N.am   21  GLY21      -0.1942
     33  CA        79.0370  293.2830  204.6990 C.3    21  GLY21       0.2014
     34  C         79.2270  294.0910  203.4380 C.2    21  GLY21       0.2638
     35  O         78.2580  294.3260  202.7210 O.2    21  GLY21      -0.2714
     36  N         80.4520  294.5250  203.1590 N.am   22  LEU22      -0.1977
     37  CA        80.7260  295.3180  201.9610 C.3    22  LEU22       0.1596
     38  C         81.9090  294.7910  201.1340 C.2    22  LEU22       0.2287
     39  O         81.7580  294.4770  199.9430 O.2    22  LEU22      -0.2864
     40  CB        80.9750  296.7880  202.3470 C.3    22  LEU22       0.0297
     41  CG        81.5490  297.7160  201.2640 C.3    22  LEU22       0.0022
     42  CD1       80.4890  298.0600  200.2360 C.3    22  LEU22       0.0001
     43  CD2       82.1110  298.9700  201.9020 C.3    22  LEU22       0.0001
     44  N         83.9660  291.8400  201.2850 N.3    24  LEU24      -0.1231
     45  CA        83.9050  290.4820  200.7580 C.3    24  LEU24       0.1678
     46  C         82.7800  290.3060  199.7340 C.2    24  LEU24       0.2434
     47  O         82.9630  289.6100  198.7340 O.2    24  LEU24      -0.2733
     48  CB        83.8850  289.4470  201.8850 C.3    24  LEU24       0.0284
     49  CG        85.1860  289.4630  202.7150 C.3    24  LEU24       0.0019
     50  CD1       85.2020  288.3280  203.7230 C.3    24  LEU24       0.0001
     51  CD2       86.3930  289.3450  201.8020 C.3    24  LEU24       0.0001
     52  N         81.5940  290.9140  199.9730 N.am   25  PRO25      -0.2718
     53  CA        80.5210  290.7710  198.9760 C.3    25  PRO25       0.1535
     54  C         80.9540  291.4030  197.6200 C.2    25  PRO25       0.2599
     55  O         80.6150  290.8840  196.5550 O.2    25  PRO25      -0.2715
     56  CB        79.3550  291.5310  199.6200 C.3    25  PRO25       0.0310
     57  CG        79.5320  291.2180  201.0490 C.3    25  PRO25       0.0237
     58  CD        81.0390  291.4450  201.2350 C.3    25  PRO25       0.0939
     59  N         81.7120  292.5060  197.6660 N.am   26  SER26      -0.1936
     60  CA        82.2260  293.1570  196.4470 C.3    26  SER26       0.2055
     61  C         83.1510  292.2040  195.7000 C.2    26  SER26       0.2643
     62  O         83.1150  292.1340  194.4720 O.2    26  SER26      -0.2714
     63  CB        83.0160  294.4110  196.7900 C.3    26  SER26       0.2130
     64  OG        82.1550  295.3690  197.3680 O.3    26  SER26      -0.2179
     65  N         83.9980  291.5020  196.4510 N.am   27  VAL27      -0.1963
     66  CA        84.9270  290.5460  195.8850 C.3    27  VAL27       0.1727
     67  C         84.1670  289.3790  195.2720 C.2    27  VAL27       0.2616
     68  O         84.5320  288.8930  194.2040 O.2    27  VAL27      -0.2715
     69  CB        85.8990  290.0390  196.9620 C.3    27  VAL27       0.0290
     70  CG1       86.7630  288.9030  196.4190 C.3    27  VAL27       0.0023
     71  CG2       86.7540  291.1970  197.4410 C.3    27  VAL27       0.0023
     72  N         83.1060  288.9390  195.9410 N.am   28  ALA28      -0.1963
     73  CA        82.2820  287.8300  195.4450 C.3    28  ALA28       0.1728
     74  C         81.6090  288.2020  194.1110 C.2    28  ALA28       0.2616
     75  O         81.5900  287.4080  193.1770 O.2    28  ALA28      -0.2715
     76  CB        81.2400  287.4470  196.4880 C.3    28  ALA28       0.0334
     77  N         81.0910  289.4220  194.0220 N.am   29  LEU29      -0.1977
     78  CA        80.4680  289.9020  192.7990 C.3    29  LEU29       0.1596
     79  C         81.4550  290.0170  191.6540 C.2    29  LEU29       0.2287
     80  O         81.1230  289.6610  190.5220 O.2    29  LEU29      -0.2864
     81  CB        79.8280  291.2600  193.0240 C.3    29  LEU29       0.0297
     82  CG        78.4810  291.2050  193.7320 C.3    29  LEU29       0.0022
     83  CD1       78.1240  292.5910  194.2430 C.3    29  LEU29       0.0001
     84  CD2       77.4230  290.6750  192.7750 C.3    29  LEU29       0.0001
     85  N         84.1480  288.3920  191.3720 N.3    31  THR31      -0.1218
     86  CA        84.6040  287.0440  191.0500 C.3    31  THR31       0.1862
     87  C         83.5710  286.3740  190.1520 C.2    31  THR31       0.2287
     88  O         83.9150  285.5510  189.3070 O.2    31  THR31      -0.2866
     89  CB        84.8080  286.2010  192.3050 C.3    31  THR31       0.1770
     90  OG1       85.8340  286.7950  193.1020 O.3    31  THR31      -0.2211
     91  CG2       85.2430  284.7940  191.9330 C.3    31  THR31       0.0375
     92  N         84.5540  285.3960  186.3210 N.3    35  TRP35      -0.1241
     93  CA        84.4580  284.0090  185.9130 C.3    35  TRP35       0.1605
     94  C         83.1080  283.7610  185.2600 C.2    35  TRP35       0.2264
     95  O         82.3560  282.8440  185.6120 O.2    35  TRP35      -0.2867
     96  CB        84.8010  283.0900  187.0900 C.3    35  TRP35       0.0550
     97  CG        86.2460  283.3720  187.6320 C.ar   35  TRP35       0.0003
     98  CD1       86.6050  283.6550  188.9300 C.ar   35  TRP35       0.0946
     99  CD2       87.4790  283.4180  186.8680 C.ar   35  TRP35       0.0152
    100  NE1       87.9650  283.8740  189.0180 N.ar   35  TRP35      -0.2442
    101  CE2       88.5240  283.7340  187.7750 C.ar   35  TRP35       0.0810
    102  CE3       87.7960  283.2190  185.5090 C.ar   35  TRP35       0.0012
    103  CZ2       89.8650  283.8570  187.3660 C.ar   35  TRP35       0.0191
    104  CZ3       89.1350  283.3430  185.1050 C.ar   35  TRP35       0.0001
    105  CH2       90.1490  283.6580  186.0340 C.ar   35  TRP35       0.0015
@<TRIPOS>BOND
     1   104   102   ar
     2   104   105   ar
     3    94    95    2
     4    94    93    1
     5   102    99   ar
     6    93    92    1
     7    93    96    1
     8   105   103   ar
     9    99    97   ar
    10    99   101   ar
    11    96    97    1
    12   103   101   ar
    13    97    98   ar
    14   101   100   ar
    15    98   100   ar
    16    88    87    2
    17    87    86    1
    18    80    79    2
    19    86    85    1
    20    86    89    1
    21    79    78    1
    22    91    89    1
    23    89    90    1
    24    84    82    1
    25    78    81    1
    26    78    77    1
    27    81    82    1
    28    75    74    2
    29    82    83    1
    30    77    74   am
    31    74    73    1
    32    68    67    2
    33    62    61    2
    34    67    66    1
    35    67    72   am
    36    73    72    1
    37    73    76    1
    38    61    60    1
    39    61    65   am
    40    66    65    1
    41    66    69    1
    42    70    69    1
    43    60    63    1
    44    60    59    1
    45    55    54    2
    46    63    64    1
    47    69    71    1
    48    54    59   am
    49    54    53    1
    50    47    46    2
    51    53    56    1
    52    53    52    1
    53    56    57    1
    54    46    52   am
    55    46    45    1
    56    39    38    2
    57    52    58    1
    58    42    41    1
    59    45    44    1
    60    45    48    1
    61    57    58    1
    62    38    37    1
    63    41    43    1
    64    41    40    1
    65    51    49    1
    66    48    49    1
    67    37    40    1
    68    37    36    1
    69    49    50    1
    70    35    34    2
    71     8     9    1
    72     8     7    1
    73    36    34   am
    74    34    33    1
    75     1     2    1
    76     6     7    1
    77     6     5    1
    78    24    23    2
    79    33    32    1
    80    23    32   am
    81    23    22    1
    82     2     5    1
    83     2     3    1
    84    22    21    1
    85    22    25    1
    86     4     3    2
    87    28    30   ar
    88    28    26   ar
    89    25    26    1
    90    30    31   ar
    91    26    27   ar
    92    31    29   ar
    93    27    29   ar
    94    13    12    2
    95    12    11    1
    96    11    10    1
    97    11    14    1
    98    15    14    1
    99    15    16    1
   100    16    17    1
   101    17    18    2
   102    18    19    1
   103    18    20    1
