@<TRIPOS>MOLECULE
tmp/1v59B01.pdb
 139 135 0 0 0
SMALL
GASTEIGER

@<TRIPOS>ATOM
      1  N         31.5480   17.6920   50.7340 N.3   160  PHE160     -0.1241
      2  CA        32.6940   16.8280   50.4790 C.3   160  PHE160      0.1605
      3  C         33.3130   16.5180   51.8410 C.2   160  PHE160      0.2264
      4  O         34.0340   17.3420   52.4110 O.2   160  PHE160     -0.2867
      5  CB        33.7140   17.5340   49.5790 C.3   160  PHE160      0.0534
      6  CG        34.8100   16.6310   49.0700 C.ar  160  PHE160     -0.0203
      7  CD1       35.0080   16.4600   47.7030 C.ar  160  PHE160     -0.0042
      8  CD2       35.6480   15.9530   49.9570 C.ar  160  PHE160     -0.0042
      9  CE1       36.0270   15.6250   47.2240 C.ar  160  PHE160     -0.0003
     10  CE2       36.6630   15.1220   49.4890 C.ar  160  PHE160     -0.0003
     11  CZ        36.8530   14.9570   48.1190 C.ar  160  PHE160     -0.0000
     12  N         36.9610   21.6100   41.7640 N.3   189  ILE189     -0.1231
     13  CA        36.7260   20.1780   41.7910 C.3   189  ILE189      0.1692
     14  C         35.3740   19.8920   41.1420 C.2   189  ILE189      0.2593
     15  O         34.3240   20.3540   41.6090 O.2   189  ILE189     -0.2718
     16  CB        36.7700   19.6230   43.2350 C.3   189  ILE189      0.0266
     17  CG1       36.3360   18.1600   43.2480 C.3   189  ILE189      0.0019
     18  CG2       35.8980   20.4500   44.1400 C.3   189  ILE189      0.0020
     19  CD1       36.3850   17.5390   44.6220 C.3   189  ILE189      0.0001
     20  N         35.4180   19.1370   40.0500 N.am  190  GLY190     -0.1942
     21  CA        34.2140   18.8040   39.3170 C.3   190  GLY190      0.2014
     22  C         34.1080   19.6470   38.0600 C.2   190  GLY190      0.2639
     23  O         34.3120   20.8580   38.1030 O.2   190  GLY190     -0.2714
     24  N         33.7980   19.0050   36.9390 N.am  191  GLY191     -0.1939
     25  CA        33.6680   19.7170   35.6810 C.3   191  GLY191      0.2014
     26  C         32.2170   19.9090   35.2770 C.2   191  GLY191      0.2639
     27  O         31.8780   19.8420   34.0930 O.2   191  GLY191     -0.2714
     28  N         31.3560   20.1350   36.2660 N.am  192  GLY192     -0.1939
     29  CA        29.9500   20.3500   35.9790 C.3   192  GLY192      0.2014
     30  C         29.7220   21.7530   35.4500 C.2   192  GLY192      0.2639
     31  O         30.6300   22.5880   35.4720 O.2   192  GLY192     -0.2714
     32  N         28.5110   22.0190   34.9740 N.am  193  ILE193     -0.1963
     33  CA        28.1760   23.3310   34.4330 C.3   193  ILE193      0.1727
     34  C         28.4570   24.4270   35.4380 C.2   193  ILE193      0.2616
     35  O         29.0800   25.4280   35.1070 O.2   193  ILE193     -0.2715
     36  CB        26.6930   23.4130   34.0370 C.3   193  ILE193      0.0290
     37  CG1       26.3720   22.3040   33.0360 C.3   193  ILE193      0.0022
     38  CG2       26.3750   24.7950   33.4680 C.3   193  ILE193      0.0023
     39  CD1       27.3660   22.2060   31.9060 C.3   193  ILE193      0.0001
     40  N         27.9910   24.2370   36.6670 N.am  194  ILE194     -0.1977
     41  CA        28.2050   25.2300   37.7040 C.3   194  ILE194      0.1596
     42  C         29.6940   25.5100   37.8630 C.2   194  ILE194      0.2287
     43  O         30.1050   26.6670   37.9550 O.2   194  ILE194     -0.2864
     44  CB        27.6090   24.7690   39.0470 C.3   194  ILE194      0.0276
     45  CG1       26.0800   24.7040   38.9380 C.3   194  ILE194      0.0022
     46  CG2       28.0340   25.7240   40.1610 C.3   194  ILE194      0.0022
     47  CD1       25.3850   24.1280   40.1840 C.3   194  ILE194      0.0001
     48  N         39.6370   19.9390   38.1200 N.3   212  VAL212     -0.1231
     49  CA        39.9280   18.5420   38.4410 C.3   212  VAL212      0.1692
     50  C         38.6380   17.7260   38.3050 C.2   212  VAL212      0.2592
     51  O         37.7100   17.8770   39.0940 O.2   212  VAL212     -0.2718
     52  CB        40.4740   18.4170   39.8840 C.3   212  VAL212      0.0266
     53  CG1       41.0730   17.0370   40.1010 C.3   212  VAL212      0.0020
     54  CG2       41.5150   19.4970   40.1430 C.3   212  VAL212      0.0020
     55  N         38.5830   16.8590   37.3010 N.am  213  GLU213     -0.1966
     56  CA        37.3920   16.0540   37.0520 C.3   213  GLU213      0.1733
     57  C         37.6450   14.5420   37.0650 C.2   213  GLU213      0.2616
     58  O         38.5530   14.0450   36.3980 O.2   213  GLU213     -0.2715
     59  CB        36.7820   16.4740   35.7080 C.3   213  GLU213      0.0429
     60  CG        35.7240   15.5360   35.1370 C.3   213  GLU213      0.1163
     61  CD        34.4920   15.4130   36.0190 C.2   213  GLU213      0.3649
     62  OE1       33.9000   16.4530   36.3790 O.co2 213  GLU213     -0.2457
     63  OE2       34.1110   14.2710   36.3450 O.co2 213  GLU213     -0.2457
     64  N         36.8200   13.8220   37.8210 N.am  214  PHE214     -0.1960
     65  CA        36.9250   12.3680   37.9340 C.3   214  PHE214      0.1771
     66  C         36.8130   11.6820   36.5810 C.2   214  PHE214      0.2619
     67  O         37.6820   10.9020   36.2030 O.2   214  PHE214     -0.2715
     68  CB        35.8210   11.8230   38.8490 C.3   214  PHE214      0.0574
     69  CG        35.7000   10.3180   38.8270 C.ar  214  PHE214     -0.0200
     70  CD1       36.6030    9.5220   39.5260 C.ar  214  PHE214     -0.0042
     71  CD2       34.6980    9.6960   38.0870 C.ar  214  PHE214     -0.0042
     72  CE1       36.5140    8.1290   39.4900 C.ar  214  PHE214     -0.0003
     73  CE2       34.6000    8.3030   38.0430 C.ar  214  PHE214     -0.0003
     74  CZ        35.5110    7.5190   38.7470 C.ar  214  PHE214     -0.0000
     75  N         35.7300   11.9740   35.8670 N.am  215  GLN215     -0.1977
     76  CA        35.4550   11.3840   34.5580 C.3   215  GLN215      0.1601
     77  C         36.4820   11.7330   33.4760 C.2   215  GLN215      0.2287
     78  O         37.3660   12.5620   33.6880 O.2   215  GLN215     -0.2864
     79  CB        34.0620   11.8150   34.0900 C.3   215  GLN215      0.0394
     80  CG        32.9410   11.4640   35.0570 C.3   215  GLN215      0.0908
     81  CD        32.7330    9.9640   35.2040 C.2   215  GLN215      0.2608
     82  OE1       31.9410    9.5130   36.0360 O.2   215  GLN215     -0.2717
     83  NE2       33.4410    9.1820   34.3910 N.am  215  GLN215     -0.0878
     84  N         34.2390   16.1430   30.1360 N.3   218  ILE218     -0.1231
     85  CA        33.4400   17.0040   31.0070 C.3   218  ILE218      0.1692
     86  C         32.0200   17.1940   30.4930 C.2   218  ILE218      0.2593
     87  O         31.5790   16.5090   29.5730 O.2   218  ILE218     -0.2718
     88  CB        34.0630   18.4070   31.1470 C.3   218  ILE218      0.0266
     89  CG1       34.0930   19.0970   29.7790 C.3   218  ILE218      0.0019
     90  CG2       35.4570   18.3050   31.7390 C.3   218  ILE218      0.0020
     91  CD1       34.5730   20.5280   29.8210 C.3   218  ILE218      0.0001
     92  N         31.3110   18.1400   31.1020 N.am  219  GLY219     -0.1942
     93  CA        29.9490   18.4280   30.6950 C.3   219  GLY219      0.2014
     94  C         28.9210   17.5560   31.3850 C.2   219  GLY219      0.2638
     95  O         27.9920   18.0630   32.0210 O.2   219  GLY219     -0.2714
     96  N         29.0910   16.2430   31.2560 N.am  220  ALA220     -0.1977
     97  CA        28.1820   15.2740   31.8550 C.3   220  ALA220      0.1597
     98  C         26.7400   15.6050   31.5040 C.2   220  ALA220      0.2287
     99  O         26.1170   16.4350   32.1610 O.2   220  ALA220     -0.2864
    100  CB        28.3630   15.2510   33.3710 C.3   220  ALA220      0.0319
    101  N         40.9500   12.3700   37.0770 N.3   245  THR245     -0.1203
    102  CA        41.6930   12.7000   38.2870 C.3   245  THR245      0.1994
    103  C         40.7270   12.9310   39.4460 C.2   245  THR245      0.2618
    104  O         39.7460   13.6650   39.3070 O.2   245  THR245     -0.2717
    105  CB        42.5360   13.9690   38.0840 C.3   245  THR245      0.1784
    106  OG1       43.4010   13.7900   36.9570 O.3   245  THR245     -0.2211
    107  CG2       43.3760   14.2550   39.3160 C.3   245  THR245      0.0376
    108  N         41.0070   12.3050   40.5870 N.am  246  LYS246     -0.1965
    109  CA        40.1490   12.4460   41.7590 C.3   246  LYS246      0.1728
    110  C         40.7440   13.2820   42.8740 C.2   246  LYS246      0.2616
    111  O         41.8350   12.9940   43.3600 O.2   246  LYS246     -0.2715
    112  CB        39.7970   11.0800   42.3540 C.3   246  LYS246      0.0311
    113  CG        38.9000   10.2130   41.5010 C.3   246  LYS246      0.0038
    114  CD        38.1260    9.2160   42.3670 C.3   246  LYS246      0.0206
    115  CE        39.0450    8.3230   43.2020 C.3   246  LYS246      0.1093
    116  NZ        38.2730    7.3910   44.0850 N.3   246  LYS246     -0.1314
    117  N         40.0170   14.3130   43.2890 N.am  247  VAL247     -0.1977
    118  CA        40.4700   15.1470   44.3900 C.3   247  VAL247      0.1596
    119  C         40.2690   14.2640   45.6160 C.2   247  VAL247      0.2287
    120  O         39.2100   13.6590   45.7770 O.2   247  VAL247     -0.2864
    121  CB        39.6130   16.4140   44.5240 C.3   247  VAL247      0.0276
    122  CG1       40.1350   17.2810   45.6580 C.3   247  VAL247      0.0022
    123  CG2       39.6230   17.1830   43.2090 C.3   247  VAL247      0.0022
    124  N         32.6530   21.8560   43.7760 N.3   282  ALA282     -0.1231
    125  CA        31.4390   21.7320   42.9730 C.3   282  ALA282      0.1694
    126  C         31.1560   20.2850   42.5650 C.2   282  ALA282      0.2592
    127  O         31.1090   19.9610   41.3800 O.2   282  ALA282     -0.2718
    128  CB        31.5470   22.6260   41.7240 C.3   282  ALA282      0.0304
    129  N         30.9550   19.4130   43.5500 N.am  283  VAL283     -0.1966
    130  CA        30.6810   18.0100   43.2670 C.3   283  VAL283      0.1727
    131  C         29.1890   17.7050   43.1740 C.2   283  VAL283      0.2616
    132  O         28.7520   16.5870   43.4700 O.2   283  VAL283     -0.2715
    133  CB        31.3250   17.0860   44.3310 C.3   283  VAL283      0.0290
    134  CG1       32.8310   17.2670   44.3160 C.3   283  VAL283      0.0023
    135  CG2       30.7720   17.4000   45.7190 C.3   283  VAL283      0.0023
    136  N         28.4080   18.7010   42.7660 N.am  284  GLY284     -0.1955
    137  CA        26.9800   18.4980   42.6120 C.3   284  GLY284      0.1869
    138  C         26.0840   19.1040   43.6730 C.2   284  GLY284      0.2309
    139  O         26.5420   19.7660   44.6130 O.2   284  GLY284     -0.2863
@<TRIPOS>BOND
     1    87    86    2
     2    89    91    1
     3    89    88    1
     4    84    85    1
     5    86    85    1
     6    86    92   am
     7    93    92    1
     8    93    94    1
     9    85    88    1
    10    88    90    1
    11    96    94   am
    12    96    97    1
    13    94    95    2
    14    98    97    1
    15    98    99    2
    16    97   100    1
    17    39    37    1
    18    37    36    1
    19    38    36    1
    20    77    78    2
    21    77    76    1
    22    36    33    1
    23    79    76    1
    24    79    80    1
    25    27    26    2
    26    83    81   am
    27    33    32    1
    28    33    34    1
    29    76    75    1
    30    32    30   am
    31    80    81    1
    32    35    34    2
    33    60    59    1
    34    60    61    1
    35    81    82    2
    36    26    25    1
    37    26    28   am
    38    34    40   am
    39    30    31    2
    40    30    29    1
    41    25    24    1
    42    59    56    1
    43    75    66   am
    44    29    28    1
    45    61    63   ar
    46    61    62   ar
    47    67    66    2
    48    58    57    2
    49    66    65    1
    50    40    41    1
    51    24    22   am
    52   106   105    1
    53    56    57    1
    54    56    55    1
    55    57    64   am
    56   101   102    1
    57    55    50   am
    58    41    42    1
    59    41    44    1
    60    64    65    1
    61    42    43    2
    62    65    68    1
    63    73    71   ar
    64    73    74   ar
    65    22    23    2
    66    22    21    1
    67   105   102    1
    68   105   107    1
    69    71    69   ar
    70    48    49    1
    71   102   103    1
    72    50    49    1
    73    50    51    2
    74    49    52    1
    75    74    72   ar
    76    69    68    1
    77    69    70   ar
    78    45    44    1
    79    45    47    1
    80    44    46    1
    81   104   103    2
    82    21    20    1
    83   103   108   am
    84    72    70   ar
    85    52    53    1
    86    52    54    1
    87    20    14   am
    88   108   109    1
    89    14    15    2
    90    14    13    1
    91   127   126    2
    92   113   112    1
    93   113   114    1
    94   128   125    1
    95   109   112    1
    96   109   110    1
    97    12    13    1
    98    13    16    1
    99   114   115    1
   100   126   125    1
   101   126   129   am
   102   137   136    1
   103   137   138    1
   104   136   131   am
   105   110   117   am
   106   110   111    2
   107   125   124    1
   108   131   130    1
   109   131   132    2
   110   115   116    1
   111   123   121    1
   112    16    17    1
   113    16    18    1
   114    17    19    1
   115   130   129    1
   116   130   133    1
   117   117   118    1
   118   138   139    2
   119   134   133    1
   120   133   135    1
   121   118   121    1
   122   118   119    1
   123   121   122    1
   124   119   120    2
   125     9     7   ar
   126     9    11   ar
   127     7     6   ar
   128    11    10   ar
   129     6     5    1
   130     6     8   ar
   131    10     8   ar
   132     5     2    1
   133     2     1    1
   134     2     3    1
   135     3     4    2
