@<TRIPOS>MOLECULE
tmp/1v59A01.pdb
 151 146 0 0 0
SMALL
GASTEIGER

@<TRIPOS>ATOM
      1  N         16.9640   62.1820   -4.9620 N.3   160  PHE160     -0.1241
      2  CA        16.0910   63.2900   -4.6300 C.3   160  PHE160      0.1605
      3  C         16.4010   64.3670   -5.6610 C.2   160  PHE160      0.2264
      4  O         17.4720   64.9600   -5.6420 O.2   160  PHE160     -0.2867
      5  CB        16.4010   63.8080   -3.2310 C.3   160  PHE160      0.0534
      6  CG        15.4230   64.8270   -2.7390 C.ar  160  PHE160     -0.0203
      7  CD1       14.5160   64.5060   -1.7420 C.ar  160  PHE160     -0.0042
      8  CD2       15.3940   66.1040   -3.2870 C.ar  160  PHE160     -0.0042
      9  CE1       13.5890   65.4450   -1.2960 C.ar  160  PHE160     -0.0003
     10  CE2       14.4690   67.0510   -2.8480 C.ar  160  PHE160     -0.0003
     11  CZ        13.5670   66.7210   -1.8520 C.ar  160  PHE160     -0.0000
     12  N         17.6840   62.8210    5.8420 N.3   189  ILE189     -0.1231
     13  CA        16.3700   62.9850    5.2480 C.3   189  ILE189      0.1692
     14  C         15.6850   61.6230    5.1900 C.2   189  ILE189      0.2593
     15  O         16.1270   60.7220    4.4750 O.2   189  ILE189     -0.2718
     16  CB        16.4430   63.5380    3.8160 C.3   189  ILE189      0.0266
     17  CG1       17.3580   64.7610    3.7710 C.3   189  ILE189      0.0019
     18  CG2       15.0340   63.9170    3.3510 C.3   189  ILE189      0.0020
     19  CD1       17.5330   65.3410    2.3840 C.3   189  ILE189      0.0001
     20  N         14.6000   61.4870    5.9420 N.am  190  GLY190     -0.1942
     21  CA        13.8680   60.2350    5.9720 C.3   190  GLY190      0.2014
     22  C         14.1710   59.4450    7.2310 C.2   190  GLY190      0.2639
     23  O         15.3360   59.2150    7.5720 O.2   190  GLY190     -0.2714
     24  N         13.1180   59.0190    7.9210 N.am  191  GLY191     -0.1939
     25  CA        13.2930   58.2550    9.1420 C.3   191  GLY191      0.2014
     26  C         12.9770   56.7850    8.9550 C.2   191  GLY191      0.2639
     27  O         12.3640   56.1540    9.8220 O.2   191  GLY191     -0.2714
     28  N         13.3760   56.2440    7.8080 N.am  192  GLY192     -0.1939
     29  CA        13.1570   54.8360    7.5470 C.3   192  GLY192      0.2014
     30  C         14.2120   54.0470    8.3090 C.2   192  GLY192      0.2639
     31  O         15.1040   54.6420    8.9120 O.2   192  GLY192     -0.2714
     32  N         14.1180   52.7180    8.2840 N.am  193  ILE193     -0.1963
     33  CA        15.0750   51.8630    8.9830 C.3   193  ILE193      0.1727
     34  C         16.5250   52.2350    8.6600 C.2   193  ILE193      0.2616
     35  O         17.3330   52.4330    9.5630 O.2   193  ILE193     -0.2715
     36  CB        14.8270   50.3700    8.6490 C.3   193  ILE193      0.0290
     37  CG1       13.4970   49.9140    9.2690 C.3   193  ILE193      0.0022
     38  CG2       15.9540   49.5150    9.1930 C.3   193  ILE193      0.0023
     39  CD1       13.1520   48.4590    8.9950 C.3   193  ILE193      0.0001
     40  N         16.8460   52.3360    7.3730 N.am  194  ILE194     -0.1977
     41  CA        18.1910   52.7030    6.9370 C.3   194  ILE194      0.1596
     42  C         18.6180   54.0520    7.5300 C.2   194  ILE194      0.2287
     43  O         19.7070   54.1760    8.0880 O.2   194  ILE194     -0.2864
     44  CB        18.2660   52.7820    5.3910 C.3   194  ILE194      0.0276
     45  CG1       18.0430   51.3910    4.7920 C.3   194  ILE194      0.0022
     46  CG2       19.6160   53.3310    4.9560 C.3   194  ILE194      0.0022
     47  CD1       17.9640   51.3670    3.2630 C.3   194  ILE194      0.0001
     48  N         15.0630   64.2600    9.6520 N.3   212  VAL212     -0.1231
     49  CA        13.9520   65.0130    9.0800 C.3   212  VAL212      0.1692
     50  C         13.0270   63.9920    8.4260 C.2   212  VAL212      0.2592
     51  O         13.4330   63.2800    7.5110 O.2   212  VAL212     -0.2718
     52  CB        14.4390   66.0170    8.0170 C.3   212  VAL212      0.0266
     53  CG1       13.3090   66.9650    7.6480 C.3   212  VAL212      0.0020
     54  CG2       15.6370   66.7960    8.5470 C.3   212  VAL212      0.0020
     55  N         11.7880   63.9230    8.8980 N.am  213  GLU213     -0.1966
     56  CA        10.8230   62.9500    8.3860 C.3   213  GLU213      0.1733
     57  C          9.5100   63.5980    7.9590 C.2   213  GLU213      0.2616
     58  O          8.9310   64.3870    8.7050 O.2   213  GLU213     -0.2715
     59  CB        10.5630   61.8880    9.4650 C.3   213  GLU213      0.0429
     60  CG         9.3860   60.9610    9.2080 C.3   213  GLU213      0.1163
     61  CD         9.5540   60.1350    7.9460 C.2   213  GLU213      0.3649
     62  OE1       10.6380   59.5440    7.7570 O.co2 213  GLU213     -0.2457
     63  OE2        8.5980   60.0650    7.1460 O.co2 213  GLU213     -0.2457
     64  N          9.0450   63.2540    6.7600 N.am  214  PHE214     -0.1960
     65  CA         7.8010   63.8030    6.2200 C.3   214  PHE214      0.1771
     66  C          6.5670   63.3670    7.0090 C.2   214  PHE214      0.2619
     67  O          5.6740   64.1670    7.2710 O.2   214  PHE214     -0.2715
     68  CB         7.6320   63.3790    4.7550 C.3   214  PHE214      0.0574
     69  CG         6.3040   63.7720    4.1570 C.ar  214  PHE214     -0.0200
     70  CD1        6.0090   65.1070    3.8910 C.ar  214  PHE214     -0.0042
     71  CD2        5.3330   62.8090    3.8940 C.ar  214  PHE214     -0.0042
     72  CE1        4.7620   65.4780    3.3730 C.ar  214  PHE214     -0.0003
     73  CE2        4.0820   63.1670    3.3780 C.ar  214  PHE214     -0.0003
     74  CZ         3.7980   64.5030    3.1180 C.ar  214  PHE214     -0.0000
     75  N          6.5180   62.0930    7.3740 N.am  215  GLN215     -0.1977
     76  CA         5.3880   61.5510    8.1210 C.3   215  GLN215      0.1601
     77  C          5.3820   62.0400    9.5680 C.2   215  GLN215      0.2287
     78  O          6.3290   62.6850   10.0160 O.2   215  GLN215     -0.2864
     79  CB         5.4340   60.0190    8.0970 C.3   215  GLN215      0.0394
     80  CG         5.1810   59.4030    6.7280 C.3   215  GLN215      0.0908
     81  CD         3.7650   59.6560    6.2270 C.2   215  GLN215      0.2608
     82  OE1        3.3170   60.8000    6.1400 O.2   215  GLN215     -0.2717
     83  NE2        3.0570   58.5840    5.8930 N.am  215  GLN215     -0.0878
     84  N          5.4280   60.1130   12.1460 N.3   217  GLN217     -0.1245
     85  CA         6.1690   59.1330   12.9380 C.3   217  GLN217      0.1566
     86  C          7.2460   58.4810   12.0780 C.2   217  GLN217      0.2260
     87  O          7.2150   58.5910   10.8540 O.2   217  GLN217     -0.2867
     88  CB         5.2180   58.0640   13.4690 C.3   217  GLN217      0.0367
     89  CG         4.4520   57.3650   12.3660 C.3   217  GLN217      0.0905
     90  CD         3.1990   56.6720   12.8640 C.2   217  GLN217      0.2608
     91  OE1        3.2640   55.6300   13.5230 O.2   217  GLN217     -0.2717
     92  NE2        2.0440   57.2550   12.5530 N.am  217  GLN217     -0.0878
     93  N         10.0300   54.9430   11.2750 N.3   219  GLY219     -0.1210
     94  CA         9.9140   53.5070   11.0760 C.3   219  GLY219      0.1956
     95  C          9.2850   53.0540    9.7690 C.2   219  GLY219      0.2611
     96  O          9.5630   51.9540    9.2900 O.2   219  GLY219     -0.2717
     97  N          8.4220   53.8920    9.2030 N.am  220  ALA220     -0.1979
     98  CA         7.7480   53.5950    7.9400 C.3   220  ALA220      0.1597
     99  C          6.6060   52.5910    8.0460 C.2   220  ALA220      0.2287
    100  O          5.4610   52.9320    7.7590 O.2   220  ALA220     -0.2864
    101  CB         8.7680   53.1150    6.8920 C.3   220  ALA220      0.0319
    102  N          7.9100   67.0070    8.4300 N.3   245  THR245     -0.1203
    103  CA         8.8310   67.9760    7.8570 C.3   245  THR245      0.1994
    104  C          9.4710   67.3520    6.6270 C.2   245  THR245      0.2618
    105  O         10.0090   66.2450    6.6930 O.2   245  THR245     -0.2717
    106  CB         9.9470   68.3300    8.8660 C.3   245  THR245      0.1784
    107  OG1        9.3560   68.6930   10.1180 O.3   245  THR245     -0.2211
    108  CG2       10.7890   69.4960    8.3630 C.3   245  THR245      0.0376
    109  N          9.4010   68.0450    5.4970 N.am  246  LYS246     -0.1965
    110  CA        10.0130   67.5170    4.2870 C.3   246  LYS246      0.1728
    111  C         11.1240   68.4380    3.8210 C.2   246  LYS246      0.2616
    112  O         11.0390   69.6560    3.9660 O.2   246  LYS246     -0.2715
    113  CB         8.9710   67.3390    3.1760 C.3   246  LYS246      0.0311
    114  CG         8.3210   68.6170    2.6790 C.3   246  LYS246      0.0038
    115  CD         7.3420   68.2970    1.5490 C.3   246  LYS246      0.0206
    116  CE         6.5800   69.5300    1.0860 C.3   246  LYS246      0.1093
    117  NZ         5.5690   69.2050    0.0350 N.3   246  LYS246     -0.1314
    118  N         12.1770   67.8500    3.2740 N.am  247  VAL247     -0.1977
    119  CA        13.2880   68.6410    2.7820 C.3   247  VAL247      0.1596
    120  C         12.8810   69.1990    1.4300 C.2   247  VAL247      0.2287
    121  O         12.1610   68.5450    0.6780 O.2   247  VAL247     -0.2864
    122  CB        14.5610   67.7850    2.6220 C.3   247  VAL247      0.0276
    123  CG1       14.3100   66.6630    1.6400 C.3   247  VAL247      0.0022
    124  CG2       15.7140   68.6490    2.1600 C.3   247  VAL247      0.0022
    125  N         18.1390   59.5220    2.4220 N.3   282  ALA282     -0.1231
    126  CA        17.6010   58.1710    2.5840 C.3   282  ALA282      0.1694
    127  C         16.0890   58.1680    2.4100 C.2   282  ALA282      0.2592
    128  O         15.3460   57.6710    3.2620 O.2   282  ALA282     -0.2718
    129  CB        17.9660   57.6310    3.9650 C.3   282  ALA282      0.0304
    130  N         15.6370   58.7110    1.2910 N.am  283  VAL283     -0.1966
    131  CA        14.2170   58.7830    1.0180 C.3   283  VAL283      0.1727
    132  C         13.6860   57.4850    0.4360 C.2   283  VAL283      0.2617
    133  O         12.5340   57.4060    0.0150 O.2   283  VAL283     -0.2715
    134  CB        13.9060   59.9570    0.0690 C.3   283  VAL283      0.0290
    135  CG1       14.1790   61.2690    0.7850 C.3   283  VAL283      0.0023
    136  CG2       14.7680   59.8600   -1.1780 C.3   283  VAL283      0.0023
    137  N         14.5320   56.4640    0.4050 N.am  284  GLY284     -0.1940
    138  CA        14.0880   55.1790   -0.0990 C.3   284  GLY284      0.2014
    139  C         14.9760   54.5470   -1.1430 C.2   284  GLY284      0.2638
    140  O         16.0170   55.0920   -1.5100 O.2   284  GLY284     -0.2714
    141  N         14.5550   53.3780   -1.6090 N.am  285  ARG285     -0.1977
    142  CA        15.2780   52.6400   -2.6360 C.3   285  ARG285      0.1597
    143  C         14.2750   52.2400   -3.7220 C.2   285  ARG285      0.2287
    144  O         13.0780   52.1130   -3.4500 O.2   285  ARG285     -0.2864
    145  CB        15.9450   51.4040   -2.0290 C.3   285  ARG285      0.0334
    146  CG        17.0060   51.7210   -0.9720 C.3   285  ARG285      0.0492
    147  CD        17.6670   50.4430   -0.4680 C.3   285  ARG285      0.2205
    148  NE        18.2220   49.6590   -1.5700 N.pl3 285  ARG285     -0.0865
    149  CZ        19.3320   49.9750   -2.2300 C.cat 285  ARG285      0.5346
    150  NH1       20.0200   51.0610   -1.8920 N.pl3 285  ARG285      0.1354
    151  NH2       19.7430   49.2160   -3.2420 N.pl3 285  ARG285      0.1354
@<TRIPOS>BOND
     1     3     4    2
     2     3     2    1
     3     1     2    1
     4     2     5    1
     5   143   144    2
     6   143   142    1
     7     8    10   ar
     8     8     6   ar
     9   151   149    1
    10     5     6    1
    11    10    11   ar
    12     6     7   ar
    13   142   145    1
    14   142   141    1
    15   149   150    1
    16   149   148    2
    17   145   146    1
    18    11     9   ar
    19     7     9   ar
    20   141   139   am
    21   148   147    1
    22   140   139    2
    23   136   134    1
    24   139   138    1
    25   146   147    1
    26   138   137    1
    27   133   132    2
    28   117   116    1
    29   134   135    1
    30   134   131    1
    31   137   132   am
    32   132   131    1
    33   121   120    2
    34   131   130    1
    35   116   115    1
    36   130   127   am
    37   120   119    1
    38   115   114    1
    39   123   122    1
    40   124   122    1
    41    19    17    1
    42   127   126    1
    43   127   128    2
    44   125   126    1
    45   126   129    1
    46   122   119    1
    47   114   113    1
    48   119   118    1
    49    74    72   ar
    50    74    73   ar
    51   113   110    1
    52    47    45    1
    53   118   111   am
    54    18    16    1
    55    72    70   ar
    56    73    71   ar
    57    17    16    1
    58    16    13    1
    59   111   112    2
    60   111   110    1
    61    70    69   ar
    62    71    69   ar
    63    69    68    1
    64   110   109    1
    65    15    14    2
    66    68    65    1
    67    45    44    1
    68    46    44    1
    69    14    13    1
    70    14    20   am
    71    13    12    1
    72    44    41    1
    73   109   104   am
    74    83    81   am
    75    20    21    1
    76    21    22    1
    77    82    81    2
    78    65    64    1
    79    65    66    1
    80    81    80    1
    81   104   105    2
    82   104   103    1
    83    80    79    1
    84    64    57   am
    85   101    98    1
    86    41    40    1
    87    41    42    1
    88    66    67    2
    89    66    75   am
    90    63    61   ar
    91    22    23    2
    92    22    24   am
    93    40    34   am
    94    75    76    1
    95    51    50    2
    96    42    43    2
    97    29    28    1
    98    29    30    1
    99    53    52    1
   100    62    61   ar
   101   100    99    2
   102    28    26   am
   103   103   102    1
   104   103   106    1
   105    24    25    1
   106    98    99    1
   107    98    97    1
   108    61    60    1
   109    57    56    1
   110    57    58    2
   111    52    54    1
   112    52    49    1
   113    79    76    1
   114    76    77    1
   115    32    30   am
   116    32    33    1
   117    30    31    2
   118   108   106    1
   119    56    55    1
   120    56    59    1
   121    50    55   am
   122    50    49    1
   123    36    33    1
   124    36    38    1
   125    36    37    1
   126    34    33    1
   127    34    35    2
   128   106   107    1
   129    26    25    1
   130    26    27    2
   131    39    37    1
   132    49    48    1
   133    97    95   am
   134    60    59    1
   135    96    95    2
   136    77    78    2
   137    95    94    1
   138    87    86    2
   139    94    93    1
   140    86    85    1
   141    84    85    1
   142    89    90    1
   143    89    88    1
   144    92    90   am
   145    90    91    2
   146    85    88    1
