@<TRIPOS>MOLECULE
tmp/1v5fA01.pdb
 144 139 0 0 0
SMALL
GASTEIGER

@<TRIPOS>ATOM
      1  N         38.3310    4.7390   16.4000 N.3    84  ASN84      -0.1240
      2  CA        37.2690    5.6300   16.8640 C.3    84  ASN84       0.1653
      3  C         37.6920    7.0880   16.9180 C.2    84  ASN84       0.2266
      4  O         36.8900    7.9770   16.6430 O.2    84  ASN84      -0.2867
      5  CB        36.7250    5.1760   18.2190 C.3    84  ASN84       0.1155
      6  CG        35.7620    4.0180   18.0800 C.2    84  ASN84       0.2627
      7  OD1       36.0730    3.0230   17.4290 O.2    84  ASN84      -0.2716
      8  ND2       34.5870    4.1440   18.6780 N.am   84  ASN84      -0.0877
      9  N         29.2640   10.9020   25.1880 N.3   386  VAL386     -0.1231
     10  CA        28.0490   10.5720   24.4540 C.3   386  VAL386      0.1692
     11  C         27.1050    9.7140   25.2830 C.2   386  VAL386      0.2593
     12  O         27.4590    8.6230   25.7200 O.2   386  VAL386     -0.2718
     13  CB        28.3900    9.8300   23.1410 C.3   386  VAL386      0.0266
     14  CG1       27.1120    9.4270   22.4160 C.3   386  VAL386      0.0020
     15  CG2       29.2340   10.7330   22.2520 C.3   386  VAL386      0.0020
     16  N         25.8970   10.2240   25.4850 N.am  387  GLY387     -0.1942
     17  CA        24.9070    9.5170   26.2710 C.3   387  GLY387      0.2014
     18  C         23.7680   10.4600   26.5950 C.2   387  GLY387      0.2639
     19  O         23.8480   11.6560   26.3200 O.2   387  GLY387     -0.2714
     20  N         22.7090    9.9250   27.1860 N.am  388  ASN388     -0.1958
     21  CA        21.5410   10.7220   27.5340 C.3   388  ASN388      0.1819
     22  C         21.8180   11.7370   28.6480 C.2   388  ASN388      0.2622
     23  O         21.4880   12.9180   28.5250 O.2   388  ASN388     -0.2715
     24  CB        20.4040    9.7900   27.9590 C.3   388  ASN388      0.1195
     25  CG        19.0390   10.4310   27.8160 C.2   388  ASN388      0.2630
     26  OD1       18.0260    9.8570   28.2180 O.2   388  ASN388     -0.2716
     27  ND2       19.0020   11.6240   27.2330 N.am  388  ASN388     -0.0877
     28  N         22.4240   11.2740   29.7360 N.am  389  SER389     -0.1936
     29  CA        22.7160   12.1460   30.8720 C.3   389  SER389      0.2055
     30  C         23.7030   13.2720   30.5650 C.2   389  SER389      0.2643
     31  O         23.5450   14.3990   31.0510 O.2   389  SER389     -0.2714
     32  CB        23.2530   11.3180   32.0420 C.3   389  SER389      0.2130
     33  OG        22.3470   10.2920   32.4010 O.3   389  SER389     -0.2179
     34  N         24.7210   12.9690   29.7650 N.am  390  THR390     -0.1950
     35  CA        25.7390   13.9570   29.4220 C.3   390  THR390      0.1897
     36  C         25.2900   14.9930   28.3910 C.2   390  THR390      0.2313
     37  O         25.5140   16.1860   28.5710 O.2   390  THR390     -0.2863
     38  CB        27.0170   13.2660   28.9020 C.3   390  THR390      0.1794
     39  OG1       26.6760   12.3930   27.8160 O.3   390  THR390     -0.2208
     40  CG2       27.6790   12.4610   30.0170 C.3   390  THR390      0.0378
     41  N         29.7650   10.6050   17.0360 N.3   412  ALA412     -0.1231
     42  CA        29.2110   10.3130   18.3530 C.3   412  ALA412      0.1694
     43  C         29.7700    9.0860   19.0620 C.2   412  ALA412      0.2593
     44  O         29.0090    8.2310   19.5230 O.2   412  ALA412     -0.2718
     45  CB        27.6960   10.1940   18.2440 C.3   412  ALA412      0.0304
     46  N         31.0920    9.0000   19.1730 N.am  413  THR413     -0.1939
     47  CA        31.6970    7.8630   19.8530 C.3   413  THR413      0.2028
     48  C         31.7550    8.0510   21.3620 C.2   413  THR413      0.2642
     49  O         32.1670    9.1000   21.8650 O.2   413  THR413     -0.2714
     50  CB        33.1370    7.5830   19.3610 C.3   413  THR413      0.1808
     51  OG1       33.6800    6.4820   20.1020 O.3   413  THR413     -0.2208
     52  CG2       34.0260    8.8020   19.5610 C.3   413  THR413      0.0379
     53  N         31.3180    7.0300   22.0860 N.am  414  MET414     -0.1976
     54  CA        31.3700    7.0680   23.5370 C.3   414  MET414      0.1605
     55  C         32.8490    6.9660   23.9010 C.2   414  MET414      0.2287
     56  O         33.6490    6.4310   23.1230 O.2   414  MET414     -0.2864
     57  CB        30.6050    5.8820   24.1300 C.3   414  MET414      0.0413
     58  CG        29.0940    6.0320   24.1180 C.3   414  MET414      0.0598
     59  SD        28.2610    4.4520   24.4280 S.3   414  MET414     -0.1393
     60  CE        28.7120    4.1470   26.1420 C.3   414  MET414      0.0692
     61  N         28.7990    9.3340   31.2820 N.3   438  GLY438     -0.1210
     62  CA        27.7660    8.4070   31.7130 C.3   438  GLY438      0.1956
     63  C         28.5330    7.1670   32.1440 C.2   438  GLY438      0.2612
     64  O         29.6670    6.9870   31.7040 O.2   438  GLY438     -0.2717
     65  N         27.9580    6.3120   32.9890 N.am  439  ASP439     -0.1959
     66  CA        28.6990    5.1290   33.4310 C.3   439  ASP439      0.1840
     67  C         29.0600    4.1620   32.3060 C.2   439  ASP439      0.2623
     68  O         30.0960    3.4960   32.3670 O.2   439  ASP439     -0.2715
     69  CB        27.9590    4.3940   34.5660 C.3   439  ASP439      0.1450
     70  CG        26.4970    4.1400   34.2610 C.2   439  ASP439      0.3671
     71  OD1       26.0840    4.3970   33.1270 O.co2 439  ASP439     -0.2456
     72  OD2       25.7580    3.6760   35.1600 O.co2 439  ASP439     -0.2456
     73  N         28.2230    4.0890   31.2780 N.am  440  GLY440     -0.1940
     74  CA        28.5200    3.2090   30.1610 C.3   440  GLY440      0.2014
     75  C         29.7650    3.6720   29.4200 C.2   440  GLY440      0.2638
     76  O         30.6430    2.8710   29.1010 O.2   440  GLY440     -0.2714
     77  N         29.8470    4.9710   29.1470 N.am  441  ALA441     -0.1977
     78  CA        30.9990    5.5250   28.4410 C.3   441  ALA441      0.1597
     79  C         32.2220    5.5020   29.3480 C.2   441  ALA441      0.2287
     80  O         33.3410    5.2640   28.8930 O.2   441  ALA441     -0.2864
     81  CB        30.7050    6.9500   27.9830 C.3   441  ALA441      0.0319
     82  N         34.1360    2.3480   29.3210 N.3   444  MET444     -0.1245
     83  CA        34.9390    2.0670   28.1320 C.3   444  MET444      0.1570
     84  C         36.2940    2.7570   28.2130 C.2   444  MET444      0.2261
     85  O         37.1940    2.4620   27.4220 O.2   444  MET444     -0.2867
     86  CB        34.2360    2.5660   26.8670 C.3   444  MET444      0.0387
     87  CG        32.9150    1.9000   26.5460 C.3   444  MET444      0.0595
     88  SD        32.1910    2.6150   25.0440 S.3   444  MET444     -0.1393
     89  CE        30.7150    1.5630   24.8470 C.3   444  MET444      0.0692
     90  N         27.7270    9.7490   35.7810 N.3   464  PHE464     -0.1241
     91  CA        26.3160    9.5130   36.0580 C.3   464  PHE464      0.1605
     92  C         26.0380    8.0130   36.0780 C.2   464  PHE464      0.2264
     93  O         26.0000    7.3670   35.0280 O.2   464  PHE464     -0.2867
     94  CB        25.4390   10.1850   34.9960 C.3   464  PHE464      0.0534
     95  CG        25.4760   11.6890   35.0360 C.ar  464  PHE464     -0.0203
     96  CD1       26.0080   12.4130   33.9740 C.ar  464  PHE464     -0.0042
     97  CD2       24.9670   12.3810   36.1300 C.ar  464  PHE464     -0.0042
     98  CE1       26.0320   13.8060   34.0020 C.ar  464  PHE464     -0.0003
     99  CE2       24.9850   13.7760   36.1690 C.ar  464  PHE464     -0.0003
    100  CZ        25.5190   14.4900   35.1010 C.ar  464  PHE464     -0.0000
    101  N         23.4660    5.3550   36.4290 N.3   466  ASN466     -0.1240
    102  CA        22.0220    5.1460   36.3890 C.3   466  ASN466      0.1653
    103  C         21.6680    3.7390   35.9220 C.2   466  ASN466      0.2266
    104  O         20.6190    3.5300   35.3140 O.2   466  ASN466     -0.2867
    105  CB        21.3710    6.1750   35.4540 C.3   466  ASN466      0.1155
    106  CG        21.8520    6.0410   34.0250 C.2   466  ASN466      0.2627
    107  OD1       22.6410    5.1560   33.7200 O.2   466  ASN466     -0.2716
    108  ND2       21.3740    6.9130   33.1420 N.am  466  ASN466     -0.0877
    109  N         20.9800    2.1920   30.5020 N.3   469  TYR469     -0.1227
    110  CA        21.1730    3.3440   29.6280 C.3   469  TYR469      0.1736
    111  C         19.8980    4.1720   29.5090 C.2   469  TYR469      0.2595
    112  O         18.8850    3.6980   28.9930 O.2   469  TYR469     -0.2718
    113  CB        21.6070    2.8710   28.2410 C.3   469  TYR469      0.0548
    114  CG        22.6410    1.7710   28.2760 C.ar  469  TYR469     -0.0200
    115  CD1       23.8950    1.9810   28.8470 C.ar  469  TYR469     -0.0009
    116  CD2       22.3580    0.5100   27.7550 C.ar  469  TYR469     -0.0009
    117  CE1       24.8410    0.9630   28.8990 C.ar  469  TYR469      0.0417
    118  CE2       23.2960   -0.5160   27.8030 C.ar  469  TYR469      0.0417
    119  CZ        24.5340   -0.2840   28.3770 C.ar  469  TYR469      0.1957
    120  OH        25.4610   -1.2980   28.4320 O.3   469  TYR469     -0.2866
    121  N         19.9590    5.4120   29.9860 N.am  470  ALA470     -0.1966
    122  CA        18.8120    6.3110   29.9410 C.3   470  ALA470      0.1728
    123  C         18.3150    6.5200   28.5150 C.2   470  ALA470      0.2616
    124  O         17.1250    6.3720   28.2360 O.2   470  ALA470     -0.2715
    125  CB        19.1800    7.6510   30.5640 C.3   470  ALA470      0.0334
    126  N         19.2340    6.8620   27.6170 N.am  471  PHE471     -0.1960
    127  CA        18.8940    7.1020   26.2190 C.3   471  PHE471      0.1771
    128  C         18.3950    5.8390   25.5220 C.2   471  PHE471      0.2619
    129  O         17.4060    5.8750   24.7900 O.2   471  PHE471     -0.2715
    130  CB        20.1100    7.6590   25.4740 C.3   471  PHE471      0.0574
    131  CG        19.8170    8.0800   24.0630 C.ar  471  PHE471     -0.0200
    132  CD1       18.7880    8.9770   23.7930 C.ar  471  PHE471     -0.0042
    133  CD2       20.5730    7.5880   23.0050 C.ar  471  PHE471     -0.0042
    134  CE1       18.5170    9.3810   22.4880 C.ar  471  PHE471     -0.0003
    135  CE2       20.3110    7.9860   21.6940 C.ar  471  PHE471     -0.0003
    136  CZ        19.2810    8.8840   21.4360 C.ar  471  PHE471     -0.0000
    137  N         19.0850    4.7260   25.7510 N.am  472  ILE472     -0.1977
    138  CA        18.7110    3.4530   25.1420 C.3   472  ILE472      0.1596
    139  C         17.3580    2.9870   25.6660 C.2   472  ILE472      0.2287
    140  O         16.6290    2.2640   24.9850 O.2   472  ILE472     -0.2864
    141  CB        19.7650    2.3620   25.4390 C.3   472  ILE472      0.0276
    142  CG1       21.1450    2.8330   24.9740 C.3   472  ILE472      0.0022
    143  CG2       19.3860    1.0620   24.7420 C.3   472  ILE472      0.0022
    144  CD1       21.2070    3.2300   23.5160 C.3   472  ILE472      0.0001
@<TRIPOS>BOND
     1     1     2    1
     2     4     3    2
     3     2     3    1
     4     2     5    1
     5    41    42    1
     6     7     6    2
     7     6     5    1
     8     6     8   am
     9    45    42    1
    10    42    43    1
    11    43    46   am
    12    43    44    2
    13    46    47    1
    14    50    52    1
    15    50    47    1
    16    50    51    1
    17    47    48    1
    18    48    49    2
    19    48    53   am
    20   136   135   ar
    21   136   134   ar
    22   135   133   ar
    23    53    54    1
    24    15    13    1
    25    14    13    1
    26   134   132   ar
    27   133   131   ar
    28    56    55    2
    29    13    10    1
    30   144   142    1
    31    54    55    1
    32    54    57    1
    33   132   131   ar
    34   131   130    1
    35    58    57    1
    36    58    59    1
    37    59    60    1
    38    10     9    1
    39    10    11    1
    40   143   141    1
    41   129   128    2
    42    89    88    1
    43   142   141    1
    44   140   139    2
    45    88    87    1
    46   138   141    1
    47   138   139    1
    48   138   137    1
    49    11    16   am
    50    11    12    2
    51   130   127    1
    52    16    17    1
    53   128   137   am
    54   128   127    1
    55   127   126    1
    56    17    18    1
    57    19    18    2
    58    87    86    1
    59    18    20   am
    60    86    83    1
    61    20    21    1
    62    27    25   am
    63    85    84    2
    64    21    24    1
    65    21    22    1
    66   126   123   am
    67   116   118   ar
    68   116   114   ar
    69   118   119   ar
    70    39    38    1
    71    25    24    1
    72    25    26    2
    73    81    78    1
    74    83    84    1
    75    83    82    1
    76   124   123    2
    77   113   114    1
    78   113   110    1
    79   114   115   ar
    80   119   120    1
    81   119   117   ar
    82    36    37    2
    83    36    35    1
    84    78    77    1
    85    78    79    1
    86   123   122    1
    87    23    22    2
    88    22    28   am
    89   115   117   ar
    90    80    79    2
    91    38    35    1
    92    38    40    1
    93   112   111    2
    94    76    75    2
    95    77    75   am
    96    75    74    1
    97    35    34    1
    98   111   110    1
    99   111   121   am
   100   110   109    1
   101    28    29    1
   102    34    30   am
   103   122   121    1
   104   122   125    1
   105    74    73    1
   106    30    29    1
   107    30    31    2
   108    29    32    1
   109    73    67   am
   110    61    62    1
   111    64    63    2
   112    62    63    1
   113    32    33    1
   114    63    65   am
   115    67    68    2
   116    67    66    1
   117    65    66    1
   118    71    70   ar
   119   108   106   am
   120    66    69    1
   121   107   106    2
   122    96    98   ar
   123    96    95   ar
   124    98   100   ar
   125   106   105    1
   126    70    69    1
   127    70    72   ar
   128    94    95    1
   129    94    91    1
   130    93    92    2
   131    95    97   ar
   132   100    99   ar
   133   104   103    2
   134   105   102    1
   135    90    91    1
   136   103   102    1
   137    91    92    1
   138    97    99   ar
   139   102   101    1
