@<TRIPOS>MOLECULE
tmp/1v5gA01.pdb
 157 152 0 0 0
SMALL
GASTEIGER

@<TRIPOS>ATOM
      1  N         38.3220    4.7420   16.4040 N.3    84  ASN84      -0.1240
      2  CA        37.2570    5.6280   16.8820 C.3    84  ASN84       0.1653
      3  C         37.6660    7.0910   16.9580 C.2    84  ASN84       0.2266
      4  O         36.8470    7.9830   16.7330 O.2    84  ASN84      -0.2867
      5  CB        36.7260    5.1590   18.2360 C.3    84  ASN84       0.1155
      6  CG        35.7560    4.0100   18.0920 C.2    84  ASN84       0.2627
      7  OD1       36.0690    3.0040   17.4590 O.2    84  ASN84      -0.2716
      8  ND2       34.5740    4.1550   18.6650 N.am   84  ASN84      -0.0877
      9  N         20.2000   14.1190   37.6130 N.3   365  PHE365     -0.1241
     10  CA        21.1670   14.8550   36.7960 C.3   365  PHE365      0.1605
     11  C         21.1800   16.3200   37.2200 C.2   365  PHE365      0.2264
     12  O         22.2250   16.8980   37.5170 O.2   365  PHE365     -0.2867
     13  CB        20.7670   14.8550   35.3150 C.3   365  PHE365      0.0534
     14  CG        21.0620   13.5800   34.5800 C.ar  365  PHE365     -0.0203
     15  CD1       20.0270   12.7300   34.2010 C.ar  365  PHE365     -0.0042
     16  CD2       22.3650   13.2680   34.1940 C.ar  365  PHE365     -0.0042
     17  CE1       20.2820   11.5880   33.4400 C.ar  365  PHE365     -0.0003
     18  CE2       22.6330   12.1280   33.4330 C.ar  365  PHE365     -0.0003
     19  CZ        21.5880   11.2880   33.0550 C.ar  365  PHE365     -0.0000
     20  N         29.1140   10.9300   25.2950 N.3   386  VAL386     -0.1231
     21  CA        27.9030   10.6430   24.5290 C.3   386  VAL386      0.1692
     22  C         26.8040    9.8770   25.2460 C.2   386  VAL386      0.2593
     23  O         27.0220    8.7730   25.7350 O.2   386  VAL386     -0.2718
     24  CB        28.2890    9.8850   23.2290 C.3   386  VAL386      0.0266
     25  CG1       27.0620    9.5640   22.4080 C.3   386  VAL386      0.0020
     26  CG2       29.2600   10.7340   22.4210 C.3   386  VAL386      0.0020
     27  N         25.6120   10.4730   25.2840 N.am  387  GLY387     -0.1942
     28  CA        24.4750    9.8490   25.9390 C.3   387  GLY387      0.2014
     29  C         23.6130   10.8870   26.6320 C.2   387  GLY387      0.2639
     30  O         23.5310   12.0320   26.1850 O.2   387  GLY387     -0.2714
     31  N         22.9690   10.5070   27.7310 N.am  388  ASN388     -0.1958
     32  CA        22.1310   11.4560   28.4480 C.3   388  ASN388      0.1819
     33  C         22.9370   12.6730   28.8960 C.2   388  ASN388      0.2622
     34  O         22.3860   13.7510   29.0610 O.2   388  ASN388     -0.2715
     35  CB        21.4580   10.7880   29.6550 C.3   388  ASN388      0.1195
     36  CG        20.1980   10.0140   29.2740 C.2   388  ASN388      0.2630
     37  OD1       19.4400    9.5600   30.1470 O.2   388  ASN388     -0.2716
     38  ND2       19.9680    9.8570   27.9740 N.am  388  ASN388     -0.0877
     39  N         24.2430   12.5000   29.0890 N.am  389  SER389     -0.1950
     40  CA        25.1030   13.6130   29.4980 C.3   389  SER389      0.1924
     41  C         25.0750   14.7390   28.4650 C.2   389  SER389      0.2314
     42  O         25.1260   15.9160   28.8190 O.2   389  SER389     -0.2863
     43  CB        26.5570   13.1510   29.6720 C.3   389  SER389      0.2116
     44  OG        26.7160   12.2940   30.7930 O.3   389  SER389     -0.2180
     45  N         29.8010   10.5420   17.0570 N.3   412  ALA412     -0.1231
     46  CA        29.2580   10.2590   18.3780 C.3   412  ALA412      0.1694
     47  C         29.7980    9.0290   19.0900 C.2   412  ALA412      0.2593
     48  O         29.0260    8.2090   19.5800 O.2   412  ALA412     -0.2718
     49  CB        27.7380   10.1680   18.2880 C.3   412  ALA412      0.0304
     50  N         31.1140    8.8970   19.1740 N.am  413  THR413     -0.1939
     51  CA        31.6760    7.7450   19.8630 C.3   413  THR413      0.2028
     52  C         31.6980    7.9730   21.3730 C.2   413  THR413      0.2642
     53  O         32.0610    9.0490   21.8490 O.2   413  THR413     -0.2714
     54  CB        33.1170    7.4460   19.3930 C.3   413  THR413      0.1808
     55  OG1       33.6610    6.3780   20.1800 O.3   413  THR413     -0.2208
     56  CG2       33.9940    8.6830   19.5430 C.3   413  THR413      0.0379
     57  N         31.2810    6.9650   22.1290 N.am  414  MET414     -0.1976
     58  CA        31.3160    7.0720   23.5780 C.3   414  MET414      0.1605
     59  C         32.7880    7.0150   23.9700 C.2   414  MET414      0.2287
     60  O         33.6190    6.5150   23.2010 O.2   414  MET414     -0.2864
     61  CB        30.5780    5.9000   24.2210 C.3   414  MET414      0.0413
     62  CG        29.0640    5.9730   24.1320 C.3   414  MET414      0.0598
     63  SD        28.3310    4.3520   24.4280 S.3   414  MET414     -0.1393
     64  CE        28.8050    4.0680   26.1550 C.3   414  MET414      0.0692
     65  N         28.7830    9.4120   31.2550 N.3   438  GLY438     -0.1210
     66  CA        27.7500    8.4750   31.6550 C.3   438  GLY438      0.1956
     67  C         28.5120    7.2380   32.1070 C.2   438  GLY438      0.2612
     68  O         29.6420    7.0380   31.6630 O.2   438  GLY438     -0.2717
     69  N         27.9370    6.4030   32.9690 N.am  439  ASP439     -0.1959
     70  CA        28.6830    5.2290   33.4250 C.3   439  ASP439      0.1840
     71  C         29.0400    4.2430   32.3080 C.2   439  ASP439      0.2623
     72  O         30.0770    3.5760   32.3730 O.2   439  ASP439     -0.2715
     73  CB        27.9560    4.5110   34.5820 C.3   439  ASP439      0.1450
     74  CG        26.4930    4.2470   34.3000 C.2   439  ASP439      0.3671
     75  OD1       26.0740    4.4130   33.1470 O.co2 439  ASP439     -0.2456
     76  OD2       25.7600    3.8590   35.2390 O.co2 439  ASP439     -0.2456
     77  N         28.2030    4.1570   31.2770 N.am  440  GLY440     -0.1940
     78  CA        28.5070    3.2570   30.1750 C.3   440  GLY440      0.2014
     79  C         29.7800    3.6710   29.4510 C.2   440  GLY440      0.2638
     80  O         30.6450    2.8380   29.1700 O.2   440  GLY440     -0.2714
     81  N         29.9050    4.9640   29.1580 N.am  441  ALA441     -0.1977
     82  CA        31.0810    5.4880   28.4620 C.3   441  ALA441      0.1597
     83  C         32.3000    5.4690   29.3750 C.2   441  ALA441      0.2287
     84  O         33.4220    5.2030   28.9320 O.2   441  ALA441     -0.2864
     85  CB        30.8180    6.9090   27.9800 C.3   441  ALA441      0.0319
     86  N         34.1070    2.3750   29.2780 N.3   444  MET444     -0.1245
     87  CA        34.9070    2.0950   28.0930 C.3   444  MET444      0.1570
     88  C         36.2550    2.7980   28.1820 C.2   444  MET444      0.2261
     89  O         37.1240    2.5700   27.3470 O.2   444  MET444     -0.2867
     90  CB        34.2010    2.5920   26.8250 C.3   444  MET444      0.0387
     91  CG        32.8990    1.8890   26.4720 C.3   444  MET444      0.0595
     92  SD        32.1520    2.6300   24.9970 S.3   444  MET444     -0.1393
     93  CE        30.7160    1.5480   24.7390 C.3   444  MET444      0.0692
     94  N         27.8400    9.8900   35.8400 N.3   464  PHE464     -0.1241
     95  CA        26.4230    9.6980   36.1100 C.3   464  PHE464      0.1605
     96  C         26.0940    8.2140   36.1090 C.2   464  PHE464      0.2264
     97  O         25.9430    7.6020   35.0550 O.2   464  PHE464     -0.2867
     98  CB        25.5900   10.4310   35.0570 C.3   464  PHE464      0.0534
     99  CG        25.6170   11.9270   35.1980 C.ar  464  PHE464     -0.0203
    100  CD1       26.0220   12.7330   34.1410 C.ar  464  PHE464     -0.0042
    101  CD2       25.2140   12.5340   36.3840 C.ar  464  PHE464     -0.0042
    102  CE1       26.0250   14.1230   34.2600 C.ar  464  PHE464     -0.0003
    103  CE2       25.2120   13.9300   36.5150 C.ar  464  PHE464     -0.0003
    104  CZ        25.6190   14.7230   35.4510 C.ar  464  PHE464     -0.0000
    105  N         23.5840    5.5440   36.4440 N.3   466  ASN466     -0.1240
    106  CA        22.1680    5.2040   36.4340 C.3   466  ASN466      0.1653
    107  C         22.0320    3.7080   36.1370 C.2   466  ASN466      0.2266
    108  O         20.9290    3.1880   36.0010 O.2   466  ASN466     -0.2867
    109  CB        21.4250    6.0350   35.3760 C.3   466  ASN466      0.1155
    110  CG        22.0820    5.9660   34.0120 C.2   466  ASN466      0.2627
    111  OD1       22.8750    5.0710   33.7520 O.2   466  ASN466     -0.2716
    112  ND2       21.7420    6.9060   33.1290 N.am  466  ASN466     -0.0877
    113  N         22.5160    1.9830   33.4900 N.3   468  GLU468     -0.1231
    114  CA        21.8380    1.6700   32.2320 C.3   468  GLU468      0.1699
    115  C         22.5400    2.4290   31.1230 C.2   468  GLU468      0.2592
    116  O         23.3320    3.3250   31.3890 O.2   468  GLU468     -0.2718
    117  CB        20.3830    2.1610   32.2180 C.3   468  GLU468      0.0402
    118  CG        19.6790    2.2840   33.5540 C.3   468  GLU468      0.1161
    119  CD        18.4100    3.1260   33.4550 C.2   468  GLU468      0.3649
    120  OE1       18.5120    4.3380   33.1560 O.co2 468  GLU468     -0.2457
    121  OE2       17.3100    2.5780   33.6730 O.co2 468  GLU468     -0.2457
    122  N         22.2500    2.0520   29.8830 N.am  469  TYR469     -0.1962
    123  CA        22.7650    2.7630   28.7200 C.3   469  TYR469      0.1771
    124  C         21.5030    3.5610   28.3960 C.2   469  TYR469      0.2619
    125  O         20.8570    3.3580   27.3690 O.2   469  TYR469     -0.2715
    126  CB        23.1030    1.7840   27.5860 C.3   469  TYR469      0.0574
    127  CG        24.3770    0.9940   27.8200 C.ar  469  TYR469     -0.0198
    128  CD1       25.6300    1.6000   27.6980 C.ar  469  TYR469     -0.0009
    129  CD2       24.3310   -0.3540   28.1810 C.ar  469  TYR469     -0.0009
    130  CE1       26.8060    0.8840   27.9290 C.ar  469  TYR469      0.0417
    131  CE2       25.4980   -1.0780   28.4160 C.ar  469  TYR469      0.0417
    132  CZ        26.7310   -0.4530   28.2900 C.ar  469  TYR469      0.1957
    133  OH        27.8840   -1.1600   28.5450 O.3   469  TYR469     -0.2866
    134  N         21.1610    4.4490   29.3250 N.am  470  ALA470     -0.1963
    135  CA        19.9660    5.2820   29.2770 C.3   470  ALA470      0.1728
    136  C         19.5440    5.9340   27.9660 C.2   470  ALA470      0.2616
    137  O         18.3860    5.8110   27.5690 O.2   470  ALA470     -0.2715
    138  CB        20.0470    6.3450   30.3760 C.3   470  ALA470      0.0334
    139  N         20.4550    6.6280   27.2950 N.am  471  PHE471     -0.1960
    140  CA        20.0980    7.3010   26.0510 C.3   471  PHE471      0.1771
    141  C         19.3830    6.3560   25.0850 C.2   471  PHE471      0.2619
    142  O         18.5320    6.7850   24.3040 O.2   471  PHE471     -0.2715
    143  CB        21.3400    7.8950   25.3850 C.3   471  PHE471      0.0574
    144  CG        21.0340    9.0200   24.4330 C.ar  471  PHE471     -0.0200
    145  CD1       20.5250   10.2260   24.9020 C.ar  471  PHE471     -0.0042
    146  CD2       21.2530    8.8720   23.0660 C.ar  471  PHE471     -0.0042
    147  CE1       20.2380   11.2730   24.0250 C.ar  471  PHE471     -0.0003
    148  CE2       20.9690    9.9090   22.1790 C.ar  471  PHE471     -0.0003
    149  CZ        20.4610   11.1130   22.6580 C.ar  471  PHE471     -0.0000
    150  N         19.7210    5.0710   25.1560 N.am  472  ILE472     -0.1977
    151  CA        19.1090    4.0560   24.2970 C.3   472  ILE472      0.1596
    152  C         17.8380    3.4770   24.9100 C.2   472  ILE472      0.2287
    153  O         16.8030    3.3980   24.2510 O.2   472  ILE472     -0.2864
    154  CB        20.0570    2.8780   24.0570 C.3   472  ILE472      0.0276
    155  CG1       21.3280    3.3580   23.3770 C.3   472  ILE472      0.0022
    156  CG2       19.3740    1.8290   23.1980 C.3   472  ILE472      0.0022
    157  CD1       22.2450    2.2370   23.0740 C.3   472  ILE472      0.0001
@<TRIPOS>BOND
     1     1     2    1
     2     4     3    2
     3     2     3    1
     4     2     5    1
     5    45    46    1
     6     7     6    2
     7     6     5    1
     8     6     8   am
     9    49    46    1
    10    46    47    1
    11    47    50   am
    12    47    48    2
    13    50    51    1
    14    54    56    1
    15    54    51    1
    16    54    55    1
    17    51    52    1
    18    52    53    2
    19    52    57   am
    20    57    58    1
    21   148   149   ar
    22   148   146   ar
    23    25    24    1
    24    26    24    1
    25   149   147   ar
    26   146   144   ar
    27   157   155    1
    28   156   154    1
    29    60    59    2
    30    24    21    1
    31   155   154    1
    32    58    59    1
    33    58    61    1
    34   147   145   ar
    35   154   151    1
    36    62    61    1
    37    62    63    1
    38   153   152    2
    39   151   152    1
    40   151   150    1
    41   142   141    2
    42    63    64    1
    43   144   145   ar
    44   144   143    1
    45    21    22    1
    46    21    20    1
    47    93    92    1
    48    92    91    1
    49   141   150   am
    50   141   140    1
    51    22    27   am
    52    22    23    2
    53    27    28    1
    54   143   140    1
    55    28    29    1
    56   140   139    1
    57    30    29    2
    58    91    90    1
    59    29    31   am
    60    90    87    1
    61   139   136   am
    62    89    88    2
    63   125   124    2
    64   137   136    2
    65   126   127    1
    66   126   123    1
    67   128   127   ar
    68   128   130   ar
    69    31    32    1
    70   127   129   ar
    71   130   132   ar
    72   136   135    1
    73    38    36   am
    74    85    82    1
    75    87    88    1
    76    87    86    1
    77   129   131   ar
    78   132   131   ar
    79   132   133    1
    80   124   123    1
    81   124   134   am
    82    32    33    1
    83    32    35    1
    84    82    81    1
    85    82    83    1
    86    41    42    2
    87    41    40    1
    88   123   122    1
    89    33    34    2
    90    33    39   am
    91    84    83    2
    92    39    40    1
    93    81    79   am
    94    80    79    2
    95    36    35    1
    96    36    37    2
    97   135   134    1
    98   135   138    1
    99    79    78    1
   100    40    43    1
   101    43    44    1
   102   122   115   am
   103    78    77    1
   104   115   116    2
   105   115   114    1
   106    65    66    1
   107    77    71   am
   108    66    67    1
   109    68    67    2
   110    67    69   am
   111   117   114    1
   112   117   118    1
   113   114   113    1
   114    71    72    2
   115    71    70    1
   116    69    70    1
   117    19    18   ar
   118    19    17   ar
   119   112   110   am
   120    75    74   ar
   121   120   119   ar
   122    70    73    1
   123    18    16   ar
   124    17    15   ar
   125   119   118    1
   126   119   121   ar
   127   111   110    2
   128   110   109    1
   129   100   102   ar
   130   100    99   ar
   131    16    14   ar
   132    15    14   ar
   133   102   104   ar
   134    74    73    1
   135    74    76   ar
   136    14    13    1
   137    97    96    2
   138    98    99    1
   139    98    95    1
   140    99   101   ar
   141    13    10    1
   142   109   106    1
   143   104   103   ar
   144    94    95    1
   145   108   107    2
   146    96    95    1
   147   107   106    1
   148   101   103   ar
   149   106   105    1
   150    10    11    1
   151    10     9    1
   152    11    12    2
