@<TRIPOS>MOLECULE
tmp/1v5yB00.pdb
 166 158 0 0 0
SMALL
GASTEIGER

@<TRIPOS>ATOM
      1  N         54.0070    3.9530    8.0750 N.3    11  ARG11      -0.1231
      2  CA        55.4510    3.9100    8.3020 C.3    11  ARG11       0.1694
      3  C         55.6240    3.0110    9.5370 C.2    11  ARG11       0.2592
      4  O         54.7040    2.8790   10.3430 O.2    11  ARG11      -0.2718
      5  CB        56.0060    5.3120    8.5820 C.3    11  ARG11       0.0321
      6  CG        55.4510    5.9960    9.8290 C.3    11  ARG11       0.0489
      7  CD        56.5160    6.8710   10.5100 C.3    11  ARG11       0.2205
      8  NE        57.6540    6.0710   10.9760 N.pl3  11  ARG11      -0.0865
      9  CZ        57.6390    5.2280   12.0120 C.cat  11  ARG11       0.5346
     10  NH1       56.5440    5.0570   12.7470 N.pl3  11  ARG11       0.1354
     11  NH2       58.7110    4.4960   12.2780 N.pl3  11  ARG11       0.1354
     12  N         56.7530    2.3240    9.6420 N.am   12  TYR12      -0.1962
     13  CA        57.0130    1.4460   10.7770 C.3    12  TYR12       0.1771
     14  C         58.5130    1.2000   10.8270 C.2    12  TYR12       0.2620
     15  O         59.2340    1.6220    9.9270 O.2    12  TYR12      -0.2715
     16  CB        56.3010    0.1110   10.5910 C.3    12  TYR12       0.0574
     17  CG        56.9210   -0.7500    9.5180 C.ar   12  TYR12      -0.0198
     18  CD1       57.6720   -1.8840    9.8480 C.ar   12  TYR12      -0.0009
     19  CD2       56.8190   -0.3940    8.1760 C.ar   12  TYR12      -0.0009
     20  CE1       58.3100   -2.6280    8.8790 C.ar   12  TYR12       0.0417
     21  CE2       57.4570   -1.1420    7.1960 C.ar   12  TYR12       0.0417
     22  CZ        58.1970   -2.2470    7.5560 C.ar   12  TYR12       0.1957
     23  OH        58.8320   -2.9690    6.5840 O.3    12  TYR12      -0.2866
     24  N         58.9740    0.5050   11.8640 N.am   13  THR13      -0.1951
     25  CA        60.3960    0.1990   12.0020 C.3    13  THR13       0.1897
     26  C         60.7110   -1.1200   11.3090 C.2    13  THR13       0.2313
     27  O         60.2660   -2.1880   11.7290 O.2    13  THR13      -0.2863
     28  CB        60.8390    0.1860   13.4910 C.3    13  THR13       0.1794
     29  OG1       60.7140    1.5160   14.0180 O.3    13  THR13      -0.2208
     30  CG2       62.3040   -0.2660   13.6300 C.3    13  THR13       0.0378
     31  N         62.6530   -4.3730   10.1980 N.3    15  LYS15      -0.1245
     32  CA        63.5410   -5.2890   10.9250 C.3    15  LYS15       0.1561
     33  C         64.4220   -6.1560   10.0080 C.2    15  LYS15       0.2260
     34  O         65.0900   -7.0680   10.4880 O.2    15  LYS15      -0.2867
     35  CB        62.7200   -6.1920   11.8400 C.3    15  LYS15       0.0271
     36  CG        61.9070   -5.4510   12.8890 C.3    15  LYS15       0.0035
     37  CD        62.7600   -4.7020   13.9030 C.3    15  LYS15       0.0206
     38  CE        61.8670   -3.9080   14.8340 C.3    15  LYS15       0.1093
     39  NZ        62.5890   -3.2710   15.9480 N.3    15  LYS15      -0.1314
     40  N         72.2890   -6.8050   17.4870 N.3    71  PHE71      -0.1227
     41  CA        71.0280   -7.1030   16.7940 C.3    71  PHE71       0.1736
     42  C         70.7730   -6.0520   15.6940 C.2    71  PHE71       0.2595
     43  O         70.0120   -6.2940   14.7500 O.2    71  PHE71      -0.2718
     44  CB        69.8410   -7.1610   17.7750 C.3    71  PHE71       0.0547
     45  CG        69.4650   -5.8300   18.3760 C.ar   71  PHE71      -0.0202
     46  CD1       68.3050   -5.1800   17.9790 C.ar   71  PHE71      -0.0042
     47  CD2       70.2680   -5.2330   19.3410 C.ar   71  PHE71      -0.0042
     48  CE1       67.9490   -3.9530   18.5300 C.ar   71  PHE71      -0.0003
     49  CE2       69.9170   -4.0060   19.8990 C.ar   71  PHE71      -0.0003
     50  CZ        68.7550   -3.3670   19.4900 C.ar   71  PHE71      -0.0000
     51  N         71.4090   -4.8860   15.8300 N.am   72  ASN72      -0.1974
     52  CA        71.2810   -3.8140   14.8480 C.3    72  ASN72       0.1688
     53  C         72.3170   -3.9020   13.7070 C.2    72  ASN72       0.2292
     54  O         72.1100   -3.3410   12.6310 O.2    72  ASN72      -0.2864
     55  CB        71.4370   -2.4470   15.5190 C.3    72  ASN72       0.1181
     56  CG        70.1680   -1.9790   16.1940 C.2    72  ASN72       0.2629
     57  OD1       69.0680   -2.3860   15.8270 O.2    72  ASN72      -0.2716
     58  ND2       70.3160   -1.1080   17.1760 N.am   72  ASN72      -0.0877
     59  N         71.8320   -4.6610    9.6020 N.3    75  HIS75      -0.1241
     60  CA        71.1890   -3.6360    8.7750 C.3    75  HIS75       0.1621
     61  C         72.1550   -2.7520    8.0290 C.2    75  HIS75       0.2264
     62  O         71.8360   -2.2820    6.9320 O.2    75  HIS75      -0.2867
     63  CB        70.2940   -2.7140    9.6120 C.3    75  HIS75       0.0745
     64  CG        69.2200   -3.4250   10.3680 C.ar   75  HIS75       0.0817
     65  ND1       68.5300   -4.5020    9.8550 N.ar   75  HIS75      -0.2268
     66  CD2       68.7490   -3.2380   11.6250 C.ar   75  HIS75       0.1154
     67  CE1       67.6870   -4.9550   10.7660 C.ar   75  HIS75       0.1986
     68  NE2       67.8010   -4.2060   11.8490 N.ar   75  HIS75      -0.2212
     69  N         66.9520   15.4080   17.8300 N.3   143  TYR143     -0.1241
     70  CA        65.8250   14.4760   17.8280 C.3   143  TYR143      0.1605
     71  C         64.6270   15.1120   17.1230 C.2   143  TYR143      0.2264
     72  O         63.7800   14.4160   16.5600 O.2   143  TYR143     -0.2867
     73  CB        65.4630   14.0410   19.2530 C.3   143  TYR143      0.0534
     74  CG        66.2260   12.8230   19.6960 C.ar  143  TYR143     -0.0201
     75  CD1       67.6210   12.8600   19.8420 C.ar  143  TYR143     -0.0009
     76  CD2       65.5650   11.6270   19.9590 C.ar  143  TYR143     -0.0009
     77  CE1       68.3290   11.7360   20.2430 C.ar  143  TYR143      0.0417
     78  CE2       66.2620   10.5060   20.3600 C.ar  143  TYR143      0.0417
     79  CZ        67.6450   10.5710   20.5050 C.ar  143  TYR143      0.1957
     80  OH        68.3170    9.4640   20.9310 O.3   143  TYR143     -0.2866
     81  N         65.2230   14.4300   13.6900 N.3   146  LEU146     -0.1245
     82  CA        64.9220   13.0200   13.4490 C.3   146  LEU146      0.1561
     83  C         63.4100   12.8010   13.2610 C.2   146  LEU146      0.2260
     84  O         63.0020   12.0110   12.4200 O.2   146  LEU146     -0.2867
     85  CB        65.4450   12.1630   14.6030 C.3   146  LEU146      0.0270
     86  CG        65.0970   10.6750   14.6000 C.3   146  LEU146      0.0019
     87  CD1       65.6340    9.9520   13.3570 C.3   146  LEU146      0.0001
     88  CD2       65.6840   10.0640   15.8760 C.3   146  LEU146      0.0001
     89  N         61.6740   11.2310    9.9630 N.3   150  LEU150     -0.1245
     90  CA        60.7930   10.0700    9.9220 C.3   150  LEU150      0.1561
     91  C         59.4880   10.3630    9.1780 C.2   150  LEU150      0.2260
     92  O         58.9720    9.5080    8.4530 O.2   150  LEU150     -0.2867
     93  CB        60.5210    9.5490   11.3390 C.3   150  LEU150      0.0270
     94  CG        61.6790    8.8580   12.0640 C.3   150  LEU150      0.0019
     95  CD1       61.2370    8.5260   13.4770 C.3   150  LEU150      0.0001
     96  CD2       62.1270    7.6020   11.3380 C.3   150  LEU150      0.0001
     97  N         64.9440    2.3780    9.9070 N.3   161  THR161     -0.1203
     98  CA        65.0990    1.7770   11.2270 C.3   161  THR161      0.1994
     99  C         65.8680    2.7740   12.0530 C.2   161  THR161      0.2619
    100  O         67.0300    3.0630   11.7520 O.2   161  THR161     -0.2717
    101  CB        65.9080    0.4640   11.1930 C.3   161  THR161      0.1784
    102  OG1       65.3300   -0.4270   10.2420 O.3   161  THR161     -0.2211
    103  CG2       65.9050   -0.2240   12.5690 C.3   161  THR161      0.0376
    104  N         65.2010    3.3760   13.0350 N.am  162  THR162     -0.1938
    105  CA        65.8700    4.3140   13.9160 C.3   162  THR162      0.2028
    106  C         66.6620    3.4560   14.8920 C.2   162  THR162      0.2645
    107  O         66.2170    2.3660   15.2600 O.2   162  THR162     -0.2714
    108  CB        64.8880    5.1890   14.6860 C.3   162  THR162      0.1808
    109  OG1       63.9980    5.8200   13.7590 O.3   162  THR162     -0.2208
    110  CG2       65.6470    6.2810   15.4230 C.3   162  THR162      0.0379
    111  N         67.8590    3.8970   15.2550 N.am  163  MET163     -0.1917
    112  CA        68.6760    3.1120   16.1570 C.3   163  MET163      0.1952
    113  C         69.3480    3.8700   17.2860 C.2   163  MET163      0.2659
    114  O         70.1890    4.7420   17.0550 O.2   163  MET163     -0.2711
    115  CB        69.7660    2.3560   15.3750 C.2   163  MET163      0.0110
    116  CG        69.2600    1.3000   14.4010 C.2   163  MET163      0.0285
    117  SD        70.5290    0.5700   13.3350 S.3   163  MET163     -0.1125
    118  CE        71.1010    2.0030   12.4930 C.3   163  MET163      0.0742
    119  N         68.9440    3.5510   18.5110 N.am  164  GLU164     -0.1960
    120  CA        69.5840    4.0980   19.7030 C.3   164  GLU164      0.1733
    121  C         70.5310    2.9910   20.2250 C.2   164  GLU164      0.2616
    122  O         71.3660    3.2280   21.0850 O.2   164  GLU164     -0.2715
    123  CB        68.5640    4.4740   20.7730 C.3   164  GLU164      0.0429
    124  CG        68.3140    5.9760   20.8690 C.3   164  GLU164      0.1163
    125  CD        67.3160    6.3300   21.9770 C.2   164  GLU164      0.3649
    126  OE1       66.9120    5.4220   22.7290 O.co2 164  GLU164     -0.2457
    127  OE2       66.9480    7.5110   22.1020 O.co2 164  GLU164     -0.2457
    128  N         70.3430    1.7750   19.7090 N.am  165  GLY165     -0.1955
    129  CA        71.1790    0.6440   20.0550 C.3   165  GLY165      0.1869
    130  C         72.4560    0.6920   19.2290 C.2   165  GLY165      0.2309
    131  O         72.6630   -0.1220   18.3280 O.2   165  GLY165     -0.2863
    132  N         72.0760    8.5340   18.1480 N.3   186  VAL186     -0.1245
    133  CA        71.0520    7.9000   17.3320 C.3   186  VAL186      0.1561
    134  C         71.4350    7.9300   15.8510 C.2   186  VAL186      0.2260
    135  O         72.0050    8.8990   15.3590 O.2   186  VAL186     -0.2867
    136  CB        69.6420    8.5750   17.5820 C.3   186  VAL186      0.0252
    137  CG1       69.6270   10.0090   17.0980 C.3   186  VAL186      0.0019
    138  CG2       68.5240    7.7570   16.9690 C.3   186  VAL186      0.0019
    139  N         58.1570   -7.3230   10.9210 N.3   200  ASN200     -0.1240
    140  CA        57.4460   -6.1790   11.4770 C.3   200  ASN200      0.1653
    141  C         56.5180   -5.5250   10.4640 C.2   200  ASN200      0.2266
    142  O         55.6090   -4.7910   10.8430 O.2   200  ASN200     -0.2867
    143  CB        58.4210   -5.1470   12.0480 C.3   200  ASN200      0.1155
    144  CG        57.8230   -4.3600   13.1990 C.2   200  ASN200      0.2627
    145  OD1       56.9880   -4.8710   13.9400 O.2   200  ASN200     -0.2716
    146  ND2       58.2420   -3.1170   13.3530 N.am  200  ASN200     -0.0877
    147  N         50.3650   -1.7830   14.2820 N.3   205  LYS205     -0.1245
    148  CA        51.0670   -0.7370   15.0160 C.3   205  LYS205      0.1561
    149  C         50.3360   -0.6060   16.3550 C.2   205  LYS205      0.2260
    150  O         49.1140   -0.7580   16.4250 O.2   205  LYS205     -0.2867
    151  CB        51.0190    0.6000   14.2610 C.3   205  LYS205      0.0271
    152  CG        51.7570    1.7360   14.9600 C.3   205  LYS205      0.0035
    153  CD        51.8880    3.0080   14.0720 C.3   205  LYS205      0.0206
    154  CE        52.5500    2.7110   12.7150 C.3   205  LYS205      0.1093
    155  NZ        53.8780    2.0450   12.8590 N.3   205  LYS205     -0.1314
    156  N         49.9690    1.8570   19.9270 N.3   207  ARG207     -0.1245
    157  CA        50.2140    3.0830   20.6780 C.3   207  ARG207      0.1563
    158  C         49.2010    3.1310   21.8150 C.2   207  ARG207      0.2260
    159  O         48.1730    2.4700   21.7640 O.2   207  ARG207     -0.2867
    160  CB        50.0390    4.3410   19.8130 C.3   207  ARG207      0.0307
    161  CG        51.0540    4.5200   18.6680 C.3   207  ARG207      0.0489
    162  CD        52.4800    4.6700   19.1750 C.3   207  ARG207      0.2205
    163  NE        53.3740    5.0430   18.0750 N.pl3 207  ARG207     -0.0865
    164  CZ        53.9950    4.1820   17.2760 C.cat 207  ARG207      0.5346
    165  NH1       53.8470    2.8780   17.4520 N.pl3 207  ARG207      0.1354
    166  NH2       54.7330    4.6430   16.2670 N.pl3 207  ARG207      0.1354
@<TRIPOS>BOND
     1    23    22    1
     2    62    61    2
     3    21    22   ar
     4    21    19   ar
     5    22    20   ar
     6    61    60    1
     7     1     2    1
     8    19    17   ar
     9     2     5    1
    10     2     3    1
    11    92    91    2
    12     5     6    1
    13    60    59    1
    14    60    63    1
    15    20    18   ar
    16    91    90    1
    17    17    18   ar
    18    17    16    1
    19     3    12   am
    20     3     4    2
    21    63    64    1
    22    12    13    1
    23     6     7    1
    24    65    64   ar
    25    65    67   ar
    26    97    98    1
    27    90    89    1
    28    90    93    1
    29    15    14    2
    30    33    34    2
    31    33    32    1
    32    31    32    1
    33   102   101    1
    34    64    66   ar
    35   141   142    2
    36   141   140    1
    37     7     8    1
    38    16    13    1
    39    67    68   ar
    40    13    14    1
    41    14    24   am
    42   139   140    1
    43    32    35    1
    44     8     9    2
    45   101    98    1
    46   101   103    1
    47    98    99    1
    48    26    27    2
    49    26    25    1
    50    96    94    1
    51    93    94    1
    52   140   143    1
    53    66    68   ar
    54   100    99    2
    55    35    36    1
    56    24    25    1
    57    25    28    1
    58     9    11    1
    59     9    10    1
    60   143   144    1
    61    99   104   am
    62    94    95    1
    63    84    83    2
    64   118   117    1
    65    54    53    2
    66   154   155    1
    67   154   153    1
    68    36    37    1
    69   104   105    1
    70   144   146   am
    71   144   145    2
    72    83    82    1
    73   117   116    1
    74    87    86    1
    75    82    81    1
    76    82    85    1
    77    28    30    1
    78    28    29    1
    79    53    52    1
    80   109   108    1
    81    37    38    1
    82   105   108    1
    83   105   106    1
    84   153   152    1
    85   151   152    1
    86   151   148    1
    87   147   148    1
    88   116   115    2
    89    86    85    1
    90    86    88    1
    91   108   110    1
    92    43    42    2
    93    38    39    1
    94    52    55    1
    95    52    51    1
    96   106   111   am
    97   106   107    2
    98   148   149    1
    99   111   112    1
   100   135   134    2
   101   115   112    1
   102    55    56    1
   103    42    51   am
   104    42    41    1
   105    57    56    2
   106   134   133    1
   107   112   113    1
   108    56    58   am
   109   166   164    1
   110   149   150    2
   111    72    71    2
   112    41    40    1
   113    41    44    1
   114   138   136    1
   115   114   113    2
   116   137   136    1
   117    71    70    1
   118   164   165    1
   119   164   163    2
   120   113   119   am
   121   133   136    1
   122   133   132    1
   123    44    45    1
   124    70    69    1
   125    70    73    1
   126    46    45   ar
   127    46    48   ar
   128   163   162    1
   129   131   130    2
   130    45    47   ar
   131   119   120    1
   132    48    50   ar
   133   161   162    1
   134   161   160    1
   135   130   129    1
   136    73    74    1
   137    47    49   ar
   138    50    49   ar
   139    74    75   ar
   140    74    76   ar
   141   120   121    1
   142   120   123    1
   143   128   129    1
   144   128   121   am
   145   160   157    1
   146    75    77   ar
   147   156   157    1
   148    76    78   ar
   149   121   122    2
   150    77    79   ar
   151    78    79   ar
   152    79    80    1
   153   157   158    1
   154   123   124    1
   155   124   125    1
   156   159   158    2
   157   125   127   ar
   158   125   126   ar
