@<TRIPOS>MOLECULE
tmp/1v5yB01.pdb
 75 71 0 0 0
SMALL
GASTEIGER

@<TRIPOS>ATOM
      1  N         66.5120   21.9000    6.5780 N.3    37  LEU37      -0.1231
      2  CA        65.4580   22.8700    6.8490 C.3    37  LEU37       0.1693
      3  C         64.7780   22.7270    8.2180 C.2    37  LEU37       0.2593
      4  O         63.9120   23.5250    8.5440 O.2    37  LEU37      -0.2718
      5  CB        64.4040   22.8060    5.7620 C.3    37  LEU37       0.0284
      6  CG        64.8980   23.2390    4.3830 C.3    37  LEU37       0.0019
      7  CD1       63.8420   22.8890    3.3320 C.3    37  LEU37       0.0001
      8  CD2       65.2120   24.7190    4.3920 C.3    37  LEU37       0.0001
      9  N         65.1920   21.7400    9.0090 N.am   38  SER38      -0.1938
     10  CA        64.6210   21.5140   10.3480 C.3    38  SER38       0.2055
     11  C         64.7580   22.7280   11.2390 C.2    38  SER38       0.2643
     12  O         65.7670   23.4430   11.2130 O.2    38  SER38      -0.2714
     13  CB        65.2930   20.3390   11.0500 C.3    38  SER38       0.2130
     14  OG        65.1710   19.1470   10.3110 O.3    38  SER38      -0.2179
     15  N         63.7250   22.9670   12.0360 N.am   39  ALA39      -0.1963
     16  CA        63.7110   24.0880   12.9620 C.3    39  ALA39       0.1728
     17  C         64.5300   23.7180   14.2000 C.2    39  ALA39       0.2617
     18  O         64.7040   22.5440   14.5090 O.2    39  ALA39      -0.2715
     19  CB        62.2540   24.4070   13.3640 C.3    39  ALA39       0.0334
     20  N         65.0600   24.7170   14.8860 N.am   40  SER40      -0.1936
     21  CA        65.8160   24.4580   16.1080 C.3    40  SER40       0.2055
     22  C         65.7610   25.7120   16.9280 C.2    40  SER40       0.2644
     23  O         65.5340   26.7980   16.3910 O.2    40  SER40      -0.2714
     24  CB        67.2730   24.0660   15.8070 C.3    40  SER40       0.2130
     25  OG        67.9330   25.0790   15.0830 O.3    40  SER40      -0.2179
     26  N         65.9320   25.5560   18.2390 N.am   41  SER41      -0.1935
     27  CA        65.9210   26.6910   19.1640 C.3    41  SER41       0.2055
     28  C         66.9460   27.7130   18.6940 C.2    41  SER41       0.2643
     29  O         68.0910   27.3580   18.4530 O.2    41  SER41      -0.2714
     30  CB        66.2660   26.2080   20.5740 C.3    41  SER41       0.2130
     31  OG        66.1320   27.2690   21.4960 O.3    41  SER41      -0.2179
     32  N         66.5280   28.9730   18.6210 N.am   42  ILE42      -0.1963
     33  CA        67.3070   30.1220   18.1250 C.3    42  ILE42       0.1727
     34  C         68.0260   29.9010   16.7740 C.2    42  ILE42       0.2616
     35  O         68.9530   30.6350   16.4360 O.2    42  ILE42      -0.2715
     36  CB        68.2810   30.7730   19.1980 C.3    42  ILE42       0.0290
     37  CG1       69.5010   29.8760   19.4950 C.3    42  ILE42       0.0022
     38  CG2       67.5140   31.0760   20.4900 C.3    42  ILE42       0.0023
     39  CD1       70.6440   30.5990   20.1800 C.3    42  ILE42       0.0001
     40  N         67.5280   28.9560   15.9720 N.am   43  ASN43      -0.1972
     41  CA        68.1140   28.6220   14.6710 C.3    43  ASN43       0.1688
     42  C         69.5650   28.1970   14.8500 C.2    43  ASN43       0.2292
     43  O         70.3800   28.3100   13.9430 O.2    43  ASN43      -0.2864
     44  CB        68.0280   29.8040   13.6970 C.3    43  ASN43       0.1181
     45  CG        68.0950   29.3630   12.2410 C.2    43  ASN43       0.2629
     46  OD1       67.7820   28.2220   11.9300 O.2    43  ASN43      -0.2716
     47  ND2       68.5300   30.2550   11.3590 N.am   43  ASN43      -0.0877
     48  N         67.7460   38.4510    6.4970 N.3   108  ARG108     -0.1245
     49  CA        66.6890   38.4520    7.4960 C.3   108  ARG108      0.1563
     50  C         66.9680   39.4440    8.6260 C.2   108  ARG108      0.2260
     51  O         66.0360   39.9510    9.2610 O.2   108  ARG108     -0.2867
     52  CB        66.2310   37.0570    7.9480 C.3   108  ARG108      0.0307
     53  CG        67.2410   36.0720    8.3710 C.3   108  ARG108      0.0489
     54  CD        66.5070   34.7970    8.8210 C.3   108  ARG108      0.2205
     55  NE        65.6980   35.0210   10.0240 N.pl3 108  ARG108     -0.0865
     56  CZ        64.3660   34.9520   10.0780 C.cat 108  ARG108      0.5346
     57  NH1       63.6600   34.6510    8.9940 N.pl3 108  ARG108      0.1354
     58  NH2       63.7350   35.2380   11.2130 N.pl3 108  ARG108      0.1354
     59  N         67.4360   18.9590   20.0550 N.3   141  GLN141     -0.1245
     60  CA        67.2880   19.6270   18.7520 C.3   141  GLN141      0.1566
     61  C         67.4970   18.6070   17.6410 C.2   141  GLN141      0.2260
     62  O         66.7720   18.6050   16.6530 O.2   141  GLN141     -0.2867
     63  CB        68.2840   20.7720   18.5620 C.3   141  GLN141      0.0367
     64  CG        68.4410   21.7540   19.7220 C.3   141  GLN141      0.0905
     65  CD        67.1450   22.4250   20.1420 C.2   141  GLN141      0.2608
     66  OE1       66.3550   22.8700   19.3080 O.2   141  GLN141     -0.2717
     67  NE2       66.9290   22.5110   21.4510 N.am  141  GLN141     -0.0878
     68  N         64.5530   16.4360   17.1680 N.3   144  LEU144     -0.1245
     69  CA        63.4910   17.1360   16.4830 C.3   144  LEU144      0.1561
     70  C         63.7240   16.9100   14.9850 C.2   144  LEU144      0.2260
     71  O         62.7750   16.6700   14.2440 O.2   144  LEU144     -0.2867
     72  CB        63.5410   18.6240   16.8100 C.3   144  LEU144      0.0270
     73  CG        62.3750   19.4890   16.3100 C.3   144  LEU144      0.0019
     74  CD1       62.4100   20.7980   17.0640 C.3   144  LEU144      0.0001
     75  CD2       62.4280   19.7430   14.7840 C.3   144  LEU144      0.0001
@<TRIPOS>BOND
     1     7     6    1
     2     6     8    1
     3     6     5    1
     4     5     2    1
     5    48    49    1
     6     1     2    1
     7     2     3    1
     8    49    52    1
     9    49    50    1
    10    52    53    1
    11     3     4    2
    12     3     9   am
    13    53    54    1
    14    50    51    2
    15    54    55    1
    16    57    56    1
    17     9    10    1
    18    55    56    2
    19    56    58    1
    20    14    13    1
    21    10    13    1
    22    10    11    1
    23    12    11    2
    24    11    15   am
    25    47    45   am
    26    46    45    2
    27    15    16    1
    28    45    44    1
    29    16    19    1
    30    16    17    1
    31    44    41    1
    32    43    42    2
    33    17    18    2
    34    17    20   am
    35    71    70    2
    36    41    42    1
    37    41    40    1
    38    75    73    1
    39    20    21    1
    40    70    69    1
    41    25    24    1
    42    24    21    1
    43    40    34   am
    44    21    22    1
    45    73    72    1
    46    73    74    1
    47    23    22    2
    48    35    34    2
    49    69    72    1
    50    69    68    1
    51    62    61    2
    52    34    33    1
    53    22    26   am
    54    61    60    1
    55    33    32    1
    56    33    36    1
    57    26    27    1
    58    29    28    2
    59    63    60    1
    60    63    64    1
    61    32    28   am
    62    28    27    1
    63    60    59    1
    64    27    30    1
    65    36    37    1
    66    36    38    1
    67    66    65    2
    68    37    39    1
    69    64    65    1
    70    65    67   am
    71    30    31    1
