@<TRIPOS>MOLECULE
tmp/1v6aB01.pdb
 103 96 0 0 0
SMALL
GASTEIGER

@<TRIPOS>ATOM
      1  N         81.9340   57.5680  -71.6880 N.3    27  GLY27      -0.1225
      2  CA        81.6360   58.6620  -70.7820 C.3    27  GLY27       0.1811
      3  C         82.9430   59.2560  -70.2970 C.2    27  GLY27       0.2280
      4  O         83.6670   58.6430  -69.5030 O.2    27  GLY27      -0.2866
      5  N         83.4050   61.9390  -68.4110 N.3    29  GLY29      -0.1210
      6  CA        83.1970   62.8760  -67.3240 C.3    29  GLY29       0.1956
      7  C         84.3480   62.6170  -66.3660 C.2    29  GLY29       0.2612
      8  O         85.2530   61.8470  -66.6910 O.2    29  GLY29      -0.2717
      9  N         84.3260   63.2230  -65.1870 N.am   30  MET30      -0.1965
     10  CA        85.4180   63.0300  -64.2390 C.3    30  MET30       0.1736
     11  C         85.7530   61.5680  -63.9060 C.2    30  MET30       0.2616
     12  O         86.9280   61.1980  -63.8670 O.2    30  MET30      -0.2715
     13  CB        85.1380   63.8270  -62.9640 C.3    30  MET30       0.0427
     14  CG        85.2000   65.3370  -63.1950 C.3    30  MET30       0.0599
     15  SD        86.8990   65.9930  -63.3430 S.3    30  MET30      -0.1393
     16  CE        87.3740   65.5680  -65.0770 C.3    30  MET30       0.0692
     17  N         84.7360   60.7400  -63.6730 N.am   31  VAL31      -0.1977
     18  CA        84.9720   59.3310  -63.3580 C.3    31  VAL31       0.1596
     19  C         85.6180   58.6280  -64.5560 C.2    31  VAL31       0.2287
     20  O         86.6130   57.9160  -64.4180 O.2    31  VAL31      -0.2864
     21  CB        83.6490   58.6100  -62.9680 C.3    31  VAL31       0.0276
     22  CG1       83.8610   57.1040  -62.8930 C.3    31  VAL31       0.0022
     23  CG2       83.1620   59.1250  -61.6210 C.3    31  VAL31       0.0022
     24  N         81.6350   59.5550  -76.0460 N.3    52  ASP52      -0.1225
     25  CA        80.7300   60.3610  -75.2380 C.3    52  ASP52       0.1805
     26  C         79.8420   61.1660  -76.1750 C.2    52  ASP52       0.2598
     27  O         80.2610   61.5160  -77.2850 O.2    52  ASP52      -0.2718
     28  CB        81.5260   61.3160  -74.3390 C.3    52  ASP52       0.1424
     29  CG        80.6990   61.8670  -73.1790 C.2    52  ASP52       0.3668
     30  OD1       79.6080   62.4300  -73.4210 O.co2  52  ASP52      -0.2456
     31  OD2       81.1480   61.7450  -72.0190 O.co2  52  ASP52      -0.2456
     32  N         78.6210   61.4580  -75.7310 N.am   53  VAL53      -0.1966
     33  CA        77.6930   62.2310  -76.5480 C.3    53  VAL53       0.1727
     34  C         78.1400   63.6850  -76.6580 C.2    53  VAL53       0.2616
     35  O         77.9030   64.3320  -77.6750 O.2    53  VAL53      -0.2715
     36  CB        76.2480   62.1770  -75.9860 C.3    53  VAL53       0.0290
     37  CG1       75.7110   60.7640  -76.0920 C.3    53  VAL53       0.0023
     38  CG2       76.2230   62.6460  -74.5370 C.3    53  VAL53       0.0023
     39  N         78.7890   64.1960  -75.6170 N.am   54  MET54      -0.1977
     40  CA        79.2730   65.5740  -75.6330 C.3    54  MET54       0.1605
     41  C         80.5610   65.6240  -76.4630 C.2    54  MET54       0.2287
     42  O         81.6670   65.4740  -75.9370 O.2    54  MET54      -0.2864
     43  CB        79.5220   66.0530  -74.1990 C.3    54  MET54       0.0413
     44  CG        78.2520   66.1090  -73.3480 C.3    54  MET54       0.0598
     45  SD        78.5550   66.6140  -71.6190 S.3    54  MET54      -0.1393
     46  CE        78.4360   68.4290  -71.7380 C.3    54  MET54       0.0692
     47  N         83.7160   68.2170  -75.5300 N.3    57  LYS57      -0.1245
     48  CA        84.3880   67.7510  -74.3250 C.3    57  LYS57       0.1561
     49  C         85.2120   66.4960  -74.5980 C.2    57  LYS57       0.2260
     50  O         86.3300   66.3650  -74.1180 O.2    57  LYS57      -0.2867
     51  CB        83.3700   67.4740  -73.2110 C.3    57  LYS57       0.0271
     52  CG        84.0230   67.2030  -71.8630 C.3    57  LYS57       0.0035
     53  CD        83.0070   67.1050  -70.7240 C.3    57  LYS57       0.0206
     54  CE        82.2050   65.8160  -70.7760 C.3    57  LYS57       0.1093
     55  NZ        81.3940   65.6250  -69.5290 N.3    57  LYS57      -0.1314
     56  N         80.6810   54.3480  -67.7870 N.3    95  THR95      -0.1203
     57  CA        80.5110   55.3360  -66.7160 C.3    95  THR95       0.1994
     58  C         79.3310   56.2580  -66.9940 C.2    95  THR95       0.2618
     59  O         78.9270   57.0340  -66.1360 O.2    95  THR95      -0.2717
     60  CB        81.7650   56.2260  -66.5600 C.3    95  THR95       0.1784
     61  OG1       81.8730   57.0960  -67.6950 O.3    95  THR95      -0.2211
     62  CG2       83.0300   55.3660  -66.4590 C.3    95  THR95       0.0376
     63  N         78.7940   56.1750  -68.2050 N.am   96  ALA96      -0.1965
     64  CA        77.6640   57.0000  -68.6180 C.3    96  ALA96       0.1728
     65  C         76.4340   56.7170  -67.7640 C.2    96  ALA96       0.2617
     66  O         76.3220   55.6620  -67.1430 O.2    96  ALA96      -0.2715
     67  CB        77.3430   56.7430  -70.0950 C.3    96  ALA96       0.0334
     68  N         75.5050   57.6630  -67.7480 N.am   97  GLY97      -0.1940
     69  CA        74.3010   57.4870  -66.9610 C.3    97  GLY97       0.2014
     70  C         73.3720   58.6730  -67.0930 C.2    97  GLY97       0.2639
     71  O         73.7210   59.6860  -67.7120 O.2    97  GLY97      -0.2714
     72  N         72.1840   58.5550  -66.5150 N.am   98  ALA98      -0.1963
     73  CA        71.2070   59.6320  -66.5840 C.3    98  ALA98       0.1728
     74  C         71.4320   60.6130  -65.4520 C.2    98  ALA98       0.2616
     75  O         71.7290   60.2160  -64.3150 O.2    98  ALA98      -0.2715
     76  CB        69.8010   59.0670  -66.5010 C.3    98  ALA98       0.0334
     77  N         71.2950   61.8990  -65.7580 N.am   99  ARG99      -0.1977
     78  CA        71.4680   62.9110  -64.7320 C.3    99  ARG99       0.1597
     79  C         70.1770   62.9030  -63.9270 C.2    99  ARG99       0.2287
     80  O         69.0950   63.1260  -64.4790 O.2    99  ARG99      -0.2864
     81  CB        71.7180   64.2970  -65.3490 C.3    99  ARG99       0.0334
     82  CG        70.5030   64.9640  -66.0060 C.3    99  ARG99       0.0492
     83  CD        70.0360   64.2090  -67.2450 C.3    99  ARG99       0.2205
     84  NE        68.9900   64.9440  -67.9550 N.pl3  99  ARG99      -0.0865
     85  CZ        68.6650   64.7300  -69.2290 C.cat  99  ARG99       0.5346
     86  NH1       69.3090   63.7980  -69.9350 N.pl3  99  ARG99       0.1354
     87  NH2       67.7000   65.4490  -69.8010 N.pl3  99  ARG99       0.1354
     88  N         69.1730   54.9370  -71.7550 N.3   116  ILE116     -0.1245
     89  CA        70.4740   55.3590  -72.2300 C.3   116  ILE116      0.1561
     90  C         71.2550   54.1140  -72.6620 C.2   116  ILE116      0.2260
     91  O         71.8770   54.1100  -73.7220 O.2   116  ILE116     -0.2867
     92  CB        71.2400   56.1410  -71.1320 C.3   116  ILE116      0.0252
     93  CG1       70.6280   57.5410  -70.9900 C.3   116  ILE116      0.0019
     94  CG2       72.7200   56.2350  -71.4770 C.3   116  ILE116      0.0019
     95  CD1       71.1940   58.3770  -69.8580 C.3   116  ILE116      0.0001
     96  N         73.7550   52.6820  -76.0490 N.3   120  ILE120     -0.1245
     97  CA        75.1380   52.3100  -75.7660 C.3   120  ILE120      0.1561
     98  C         75.4910   50.8260  -75.8890 C.2   120  ILE120      0.2260
     99  O         76.3050   50.4460  -76.7320 O.2   120  ILE120     -0.2867
    100  CB        75.5460   52.7950  -74.3460 C.3   120  ILE120      0.0252
    101  CG1       75.4990   54.3270  -74.2970 C.3   120  ILE120      0.0019
    102  CG2       76.9410   52.2620  -73.9760 C.3   120  ILE120      0.0019
    103  CD1       75.7620   54.9090  -72.9400 C.3   120  ILE120      0.0001
@<TRIPOS>BOND
     1    35    34    2
     2    27    26    2
     3    99    98    2
     4    34    33    1
     5    34    39   am
     6    33    36    1
     7    33    32    1
     8    41    42    2
     9    41    40    1
    10    26    32   am
    11    26    25    1
    12    37    36    1
    13    96    97    1
    14    24    25    1
    15    36    38    1
    16    98    97    1
    17    97   100    1
    18    40    39    1
    19    40    43    1
    20    47    48    1
    21    25    28    1
    22    49    48    1
    23    49    50    2
    24   100   101    1
    25   100   102    1
    26    28    29    1
    27    48    51    1
    28   101   103    1
    29    43    44    1
    30    91    90    2
    31    30    29   ar
    32    44    45    1
    33    51    52    1
    34    29    31   ar
    35    90    89    1
    36    89    88    1
    37    89    92    1
    38    52    53    1
    39    46    45    1
    40     1     2    1
    41    94    92    1
    42    92    93    1
    43    93    95    1
    44     2     3    1
    45    54    53    1
    46    54    55    1
    47     3     4    2
    48    67    64    1
    49    86    85    1
    50    87    85    1
    51    85    84    2
    52    64    63    1
    53    64    65    1
    54     5     6    1
    55    63    58   am
    56    84    83    1
    57    56    57    1
    58    65    68   am
    59    65    66    2
    60    68    69    1
    61    71    70    2
    62    61    60    1
    63     6     7    1
    64    83    82    1
    65    70    69    1
    66    70    72   am
    67    58    57    1
    68    58    59    2
    69    57    60    1
    70     8     7    2
    71    73    72    1
    72    73    76    1
    73    73    74    1
    74    60    62    1
    75     7     9   am
    76    82    81    1
    77    77    74   am
    78    77    78    1
    79    74    75    2
    80    81    78    1
    81     9    10    1
    82    16    15    1
    83    78    79    1
    84    19    20    2
    85    19    18    1
    86    80    79    2
    87    10    11    1
    88    10    13    1
    89    11    12    2
    90    11    17   am
    91    17    18    1
    92    18    21    1
    93    15    14    1
    94    14    13    1
    95    21    22    1
    96    21    23    1
