@<TRIPOS>MOLECULE
tmp/1v6cB00.pdb
 73 69 0 0 0
SMALL
GASTEIGER

@<TRIPOS>ATOM
      1  N         95.6850    1.3500   10.5940 N.3    65  HIS65      -0.1241
      2  CA        96.6040    2.4710   10.8090 C.3    65  HIS65       0.1621
      3  C         97.7810    2.1470   11.7360 C.2    65  HIS65       0.2264
      4  O         98.9340    2.4490   11.4160 O.2    65  HIS65      -0.2867
      5  CB        95.8250    3.6820   11.3410 C.3    65  HIS65       0.0745
      6  CG        96.6150    4.9560   11.3610 C.ar   65  HIS65       0.0817
      7  ND1       97.3500    5.3650   12.4550 N.ar   65  HIS65      -0.2268
      8  CD2       96.7860    5.9110   10.4160 C.ar   65  HIS65       0.1154
      9  CE1       97.9380    6.5170   12.1830 C.ar   65  HIS65       0.1986
     10  NE2       97.6120    6.8700   10.9510 N.ar   65  HIS65      -0.2212
     11  N         92.3770    3.0740   19.2890 N.3    99  PHE99      -0.1241
     12  CA        91.3920    3.1660   18.2150 C.3    99  PHE99       0.1605
     13  C         90.7710    1.8480   17.7840 C.2    99  PHE99       0.2264
     14  O         91.4410    0.8110   17.7270 O.2    99  PHE99      -0.2867
     15  CB        92.0040    3.7840   16.9520 C.3    99  PHE99       0.0534
     16  CG        92.4940    5.1840   17.1260 C.ar   99  PHE99      -0.0203
     17  CD1       93.8500    5.4740   17.0100 C.ar   99  PHE99      -0.0042
     18  CD2       91.6040    6.2210   17.3730 C.ar   99  PHE99      -0.0042
     19  CE1       94.3130    6.7810   17.1370 C.ar   99  PHE99      -0.0003
     20  CE2       92.0580    7.5340   17.5020 C.ar   99  PHE99      -0.0003
     21  CZ        93.4140    7.8100   17.3830 C.ar   99  PHE99      -0.0000
     22  N        100.9060    8.8460   16.4690 N.3   129  SER129     -0.1202
     23  CA       100.5110    9.3060   15.1410 C.3   129  SER129      0.2020
     24  C         99.0250    9.6200   15.2280 C.2   129  SER129      0.2619
     25  O         98.1890    8.9460   14.6260 O.2   129  SER129     -0.2717
     26  CB       100.7590    8.2130   14.1010 C.3   129  SER129      0.2103
     27  OG       102.1470    8.0280   13.8860 O.3   129  SER129     -0.2182
     28  N         98.7130   10.6460   16.0080 N.am  130  LEU130     -0.1965
     29  CA        97.3450   11.0700   16.2290 C.3   130  LEU130      0.1728
     30  C         97.3580   12.5060   16.7150 C.2   130  LEU130      0.2616
     31  O         98.3920   13.0120   17.1550 O.2   130  LEU130     -0.2715
     32  CB        96.6930   10.1720   17.2840 C.3   130  LEU130      0.0311
     33  CG        97.4530   10.0470   18.6120 C.3   130  LEU130      0.0022
     34  CD1       97.0930   11.2010   19.5320 C.3   130  LEU130      0.0001
     35  CD2       97.1030    8.7260   19.2750 C.3   130  LEU130      0.0001
     36  N         96.2060   13.1620   16.6410 N.am  131  GLY131     -0.1955
     37  CA        96.1340   14.5360   17.0900 C.3   131  GLY131      0.1869
     38  C         94.7140   15.0540   17.1760 C.2   131  GLY131      0.2309
     39  O         93.8110   14.5570   16.4980 O.2   131  GLY131     -0.2863
     40  N        102.4280   13.5290   15.6010 N.3   156  ALA156     -0.1245
     41  CA       102.1810   14.0990   14.2730 C.3   156  ALA156      0.1562
     42  C        101.6210   15.5220   14.2950 C.2   156  ALA156      0.2260
     43  O        100.7400   15.8370   15.0910 O.2   156  ALA156     -0.2867
     44  CB       101.2410   13.1850   13.5010 C.3   156  ALA156      0.0290
     45  N         99.7660   16.9050   12.0500 N.3   158  GLY158     -0.1210
     46  CA        98.4230   16.9880   11.4980 C.3   158  GLY158      0.1956
     47  C         98.4440   17.2260   10.0000 C.2   158  GLY158      0.2611
     48  O         99.4020   17.7970    9.4760 O.2   158  GLY158     -0.2717
     49  N         97.3740   16.8150    9.3200 N.am  159  ASN159     -0.1974
     50  CA        97.2790   16.9280    7.8620 C.3   159  ASN159      0.1688
     51  C         96.2650   17.9530    7.3600 C.2   159  ASN159      0.2292
     52  O         95.7960   17.8360    6.2280 O.2   159  ASN159     -0.2864
     53  CB        96.8960   15.5630    7.2810 C.3   159  ASN159      0.1181
     54  CG        97.7880   14.4450    7.7780 C.2   159  ASN159      0.2629
     55  OD1       97.3410   13.3020    7.9420 O.2   159  ASN159     -0.2716
     56  ND2       99.0540   14.7580    8.0120 N.am  159  ASN159     -0.0877
     57  N        100.7630   11.0600    5.1000 N.3   367  GLY367     -0.1210
     58  CA       100.4240   11.6960    6.3570 C.3   367  GLY367      0.1956
     59  C        101.5370   11.9640    7.3450 C.2   367  GLY367      0.2613
     60  O        102.5860   11.3160    7.3280 O.2   367  GLY367     -0.2717
     61  N        101.3070   12.9430    8.2120 N.am  368  THR368     -0.1938
     62  CA       102.2820   13.2580    9.2370 C.3   368  THR368      0.2028
     63  C        102.3120   12.0600   10.1870 C.2   368  THR368      0.2642
     64  O        103.2630   11.8860   10.9480 O.2   368  THR368     -0.2714
     65  CB       101.9010   14.5470    9.9950 C.3   368  THR368      0.1808
     66  OG1      100.5330   14.4800   10.4030 O.3   368  THR368     -0.2208
     67  CG2      102.0930   15.7720    9.0950 C.3   368  THR368      0.0379
     68  N        101.2670   11.2320   10.1290 N.am  369  SER369     -0.1949
     69  CA       101.1830   10.0320   10.9630 C.3   369  SER369      0.1924
     70  C        102.1790    8.9930   10.4620 C.2   369  SER369      0.2314
     71  O        102.5260    8.0560   11.1830 O.2   369  SER369     -0.2863
     72  CB        99.7180    9.7360   10.9550 C.3   369  SER369      0.2116
     73  OG        98.8160   10.3280   11.7420 O.3   369  SER369     -0.2180
@<TRIPOS>BOND
     1    57    58    1
     2    52    51    2
     3    58    59    1
     4    53    54    1
     5    53    50    1
     6    60    59    2
     7    59    61   am
     8    51    50    1
     9    54    55    2
    10    54    56   am
    11    50    49    1
    12    61    62    1
    13    67    65    1
    14    62    65    1
    15    62    63    1
    16    49    47   am
    17    48    47    2
    18    65    66    1
    19    47    46    1
    20    68    63   am
    21    68    69    1
    22    63    64    2
    23     8    10   ar
    24     8     6   ar
    25    70    69    1
    26    70    71    2
    27     1     2    1
    28     2     5    1
    29     2     3    1
    30    10     9   ar
    31    72    69    1
    32    72    73    1
    33     5     6    1
    34     6     7   ar
    35     4     3    2
    36    46    45    1
    37     9     7   ar
    38    44    41    1
    39    27    26    1
    40    26    23    1
    41    41    42    1
    42    41    40    1
    43    42    43    2
    44    25    24    2
    45    23    24    1
    46    23    22    1
    47    24    28   am
    48    28    29    1
    49    29    30    1
    50    29    32    1
    51    39    38    2
    52    36    30   am
    53    36    37    1
    54    30    31    2
    55    15    16    1
    56    15    12    1
    57    17    16   ar
    58    17    19   ar
    59    37    38    1
    60    16    18   ar
    61    19    21   ar
    62    32    33    1
    63    18    20   ar
    64    21    20   ar
    65    14    13    2
    66    13    12    1
    67    12    11    1
    68    33    35    1
    69    33    34    1
