@<TRIPOS>MOLECULE
tmp/1v6uB00.pdb
 167 163 0 0 0
SMALL
GASTEIGER

@<TRIPOS>ATOM
      1  N         48.5900   30.1470   84.8320 N.3    24  LYS24      -0.1245
      2  CA        48.6710   31.1500   83.7750 C.3    24  LYS24       0.1561
      3  C         49.8670   32.0780   83.9690 C.2    24  LYS24       0.2260
      4  O         50.1140   32.9630   83.1400 O.2    24  LYS24      -0.2867
      5  CB        47.3820   31.9840   83.7290 C.3    24  LYS24       0.0271
      6  CG        46.1090   31.1860   83.4280 C.3    24  LYS24       0.0035
      7  CD        44.9250   32.1130   83.1740 C.3    24  LYS24       0.0206
      8  CE        43.6130   31.3520   82.9770 C.3    24  LYS24       0.1093
      9  NZ        43.1040   30.7490   84.2480 N.3    24  LYS24      -0.1314
     10  N         42.8820   32.3650   92.9100 N.3    44  GLU44      -0.1231
     11  CA        41.5750   31.9480   92.4300 C.3    44  GLU44       0.1699
     12  C         41.1050   30.5900   92.9510 C.2    44  GLU44       0.2592
     13  O         39.9100   30.3970   93.1770 O.2    44  GLU44      -0.2718
     14  CB        41.5440   31.9340   90.8990 C.3    44  GLU44       0.0402
     15  CG        40.1390   31.7830   90.3410 C.3    44  GLU44       0.1161
     16  CD        40.1110   31.7730   88.8240 C.2    44  GLU44       0.3649
     17  OE1       41.1970   31.7350   88.2110 O.co2  44  GLU44      -0.2457
     18  OE2       39.0000   31.7990   88.2510 O.co2  44  GLU44      -0.2457
     19  N         42.0350   29.6620   93.1530 N.am   45  ASN45      -0.1974
     20  CA        41.6840   28.3190   93.6170 C.3    45  ASN45       0.1688
     21  C         42.7320   27.6450   94.4920 C.2    45  ASN45       0.2292
     22  O         42.4160   26.7200   95.2300 O.2    45  ASN45      -0.2864
     23  CB        41.4540   27.3850   92.4170 C.3    45  ASN45       0.1181
     24  CG        40.1690   27.6750   91.6810 C.2    45  ASN45       0.2629
     25  OD1       39.0780   27.5410   92.2340 O.2    45  ASN45      -0.2716
     26  ND2       40.2890   28.0660   90.4180 N.am   45  ASN45      -0.0877
     27  N         42.2090   27.1670   98.4340 N.3    48  LYS48      -0.1245
     28  CA        40.9360   26.6130   98.8660 C.3    48  LYS48       0.1561
     29  C         41.1630   25.3350   99.6660 C.2    48  LYS48       0.2260
     30  O         42.2810   24.8340   99.7290 O.2    48  LYS48      -0.2867
     31  CB        40.0270   26.3750   97.6560 C.3    48  LYS48       0.0271
     32  CG        39.5180   27.6970   97.0530 C.3    48  LYS48       0.0035
     33  CD        38.6510   27.5090   95.8080 C.3    48  LYS48       0.0206
     34  CE        38.1580   28.8710   95.3040 C.3    48  LYS48       0.1093
     35  NZ        37.3540   28.8020   94.0500 N.3    48  LYS48      -0.1314
     36  N         42.1600   33.0780  100.4290 N.3    81  HIS81      -0.1241
     37  CA        40.8310   32.5990  100.0460 C.3    81  HIS81       0.1621
     38  C         40.8720   31.0890   99.7500 C.2    81  HIS81       0.2264
     39  O         41.5800   30.6680   98.8390 O.2    81  HIS81      -0.2867
     40  CB        40.3830   33.3740   98.7980 C.3    81  HIS81       0.0745
     41  CG        39.0830   32.9140   98.2200 C.ar   81  HIS81       0.0817
     42  ND1       37.8630   33.2950   98.7330 N.ar   81  HIS81      -0.2268
     43  CD2       38.8130   32.1020   97.1690 C.ar   81  HIS81       0.1154
     44  CE1       36.8960   32.7390   98.0230 C.ar   81  HIS81       0.1986
     45  NE2       37.4450   32.0100   97.0680 N.ar   81  HIS81      -0.2212
     46  N         34.2700   26.5300  103.9520 N.3    85  TRP85      -0.1241
     47  CA        33.3030   26.6770  102.8770 C.3    85  TRP85       0.1605
     48  C         32.6160   25.3540  102.5520 C.2    85  TRP85       0.2264
     49  O         33.2210   24.2870  102.6670 O.2    85  TRP85      -0.2867
     50  CB        34.0770   27.2130  101.6710 C.3    85  TRP85       0.0550
     51  CG        33.3130   27.6120  100.4720 C.ar   85  TRP85       0.0003
     52  CD1       31.9980   27.9800  100.4030 C.ar   85  TRP85       0.0946
     53  CD2       33.8560   27.8060   99.1610 C.ar   85  TRP85       0.0152
     54  NE1       31.6920   28.3990   99.1260 N.ar   85  TRP85      -0.2442
     55  CE2       32.8150   28.3020   98.3450 C.ar   85  TRP85       0.0810
     56  CE3       35.1260   27.6100   98.5950 C.ar   85  TRP85       0.0012
     57  CZ2       33.0050   28.6090   96.9870 C.ar   85  TRP85       0.0191
     58  CZ3       35.3120   27.9160   97.2450 C.ar   85  TRP85       0.0001
     59  CH2       34.2540   28.4100   96.4610 C.ar   85  TRP85       0.0015
     60  N         33.7990   23.0970   97.0580 N.3    88  GLN88      -0.1245
     61  CA        35.1640   22.7020   96.7310 C.3    88  GLN88       0.1566
     62  C         35.8690   22.0920   97.9350 C.2    88  GLN88       0.2260
     63  O         37.0380   22.3710   98.2130 O.2    88  GLN88      -0.2867
     64  CB        35.9610   23.8910   96.1630 C.3    88  GLN88       0.0367
     65  CG        35.7830   24.0530   94.6490 C.3    88  GLN88       0.0905
     66  CD        36.5090   25.2560   94.0720 C.2    88  GLN88       0.2608
     67  OE1       36.1140   26.4080   94.2910 O.2    88  GLN88      -0.2717
     68  NE2       37.5840   24.9940   93.3320 N.am   88  GLN88      -0.0878
     69  N         33.1910   31.3880  103.8690 N.3   127  ASN127     -0.1225
     70  CA        32.6540   31.7900  102.5830 C.3   127  ASN127      0.1785
     71  C         31.2510   31.2350  102.3300 C.2   127  ASN127      0.2597
     72  O         30.9900   30.0630  102.5860 O.2   127  ASN127     -0.2718
     73  CB        33.6100   31.3230  101.4680 C.3   127  ASN127      0.1169
     74  CG        33.3770   32.0450  100.1510 C.2   127  ASN127      0.2627
     75  OD1       33.1740   33.2580  100.1290 O.2   127  ASN127     -0.2716
     76  ND2       33.4330   31.3040   99.0400 N.am  127  ASN127     -0.0877
     77  N         30.3560   32.1030  101.8580 N.am  128  GLU128     -0.1979
     78  CA        28.9840   31.7370  101.4820 C.3   128  GLU128      0.1602
     79  C         28.1780   30.9060  102.4790 C.2   128  GLU128      0.2287
     80  O         27.5970   29.8700  102.1090 O.2   128  GLU128     -0.2864
     81  CB        29.0340   31.0060  100.1300 C.3   128  GLU128      0.0415
     82  CG        30.0690   31.6080   99.1880 C.3   128  GLU128      0.1163
     83  CD        30.0620   31.0250   97.7860 C.2   128  GLU128      0.3649
     84  OE1       29.7240   29.8380   97.6090 O.co2 128  GLU128     -0.2457
     85  OE2       30.4280   31.7640   96.8530 O.co2 128  GLU128     -0.2457
     86  N         28.1280   36.2150   98.3640 N.3   172  TYR172     -0.1241
     87  CA        27.5910   36.8540   97.1640 C.3   172  TYR172      0.1605
     88  C         26.1050   37.1420   97.3450 C.2   172  TYR172      0.2264
     89  O         25.4670   36.6260   98.2700 O.2   172  TYR172     -0.2867
     90  CB        27.7770   35.9700   95.9290 C.3   172  TYR172      0.0534
     91  CG        27.0500   34.6520   96.0090 C.ar  172  TYR172     -0.0201
     92  CD1       27.5790   33.5890   96.7370 C.ar  172  TYR172     -0.0009
     93  CD2       25.8320   34.4660   95.3570 C.ar  172  TYR172     -0.0009
     94  CE1       26.9160   32.3680   96.8120 C.ar  172  TYR172      0.0417
     95  CE2       25.1560   33.2430   95.4250 C.ar  172  TYR172      0.0417
     96  CZ        25.7060   32.2030   96.1560 C.ar  172  TYR172      0.1957
     97  OH        25.0480   31.0020   96.2410 O.3   172  TYR172     -0.2866
     98  N         31.3800   39.8300   97.3400 N.3   205  GLN205     -0.1245
     99  CA        31.8870   39.2770   96.0940 C.3   205  GLN205      0.1566
    100  C         31.6180   40.1660   94.8920 C.2   205  GLN205      0.2260
    101  O         32.5190   40.4220   94.0900 O.2   205  GLN205     -0.2867
    102  CB        31.3260   37.8690   95.8790 C.3   205  GLN205      0.0367
    103  CG        31.8630   36.8670   96.9040 C.3   205  GLN205      0.0905
    104  CD        31.4570   35.4380   96.5900 C.2   205  GLN205      0.2608
    105  OE1       31.1710   35.1100   95.4430 O.2   205  GLN205     -0.2717
    106  NE2       31.4530   34.5760   97.6040 N.am  205  GLN205     -0.0878
    107  N         29.4450   39.7220   92.1560 N.3   207  HIS207     -0.1241
    108  CA        29.3410   39.0550   90.8610 C.3   207  HIS207      0.1621
    109  C         27.9970   39.5340   90.3270 C.2   207  HIS207      0.2264
    110  O         26.9710   38.9170   90.5900 O.2   207  HIS207     -0.2867
    111  CB        29.3210   37.5330   91.0310 C.3   207  HIS207      0.0745
    112  CG        30.6350   36.9540   91.4520 C.ar  207  HIS207      0.0817
    113  ND1       31.7650   37.0260   90.6660 N.ar  207  HIS207     -0.2268
    114  CD2       30.9960   36.2730   92.5690 C.ar  207  HIS207      0.1154
    115  CE1       32.7640   36.4130   91.2760 C.ar  207  HIS207      0.1986
    116  NE2       32.3240   35.9470   92.4310 N.ar  207  HIS207     -0.2212
    117  N         35.3020   39.9660   94.5590 N.3   236  GLU236     -0.1245
    118  CA        35.3560   39.1470   93.3460 C.3   236  GLU236      0.1567
    119  C         34.5600   39.8090   92.2340 C.2   236  GLU236      0.2260
    120  O         33.8300   39.1620   91.4860 O.2   236  GLU236     -0.2867
    121  CB        34.7890   37.7540   93.6560 C.3   236  GLU236      0.0388
    122  CG        35.3990   37.0970   94.9050 C.3   236  GLU236      0.1160
    123  CD        34.8510   35.6980   95.1760 C.2   236  GLU236      0.3649
    124  OE1       34.1190   35.1640   94.3150 O.co2 236  GLU236     -0.2457
    125  OE2       35.1550   35.1250   96.2470 O.co2 236  GLU236     -0.2457
    126  N         37.5390   39.6140   89.7050 N.3   266  TRP266     -0.1241
    127  CA        37.8150   38.1860   89.6570 C.3   266  TRP266      0.1605
    128  C         38.4210   37.7200   88.3360 C.2   266  TRP266      0.2264
    129  O         37.7710   37.0280   87.5450 O.2   266  TRP266     -0.2867
    130  CB        36.5250   37.4140   89.9720 C.3   266  TRP266      0.0550
    131  CG        36.7620   36.0690   90.5920 C.ar  266  TRP266      0.0003
    132  CD1       36.4120   34.8560   90.0740 C.ar  266  TRP266      0.0946
    133  CD2       37.4370   35.7990   91.8280 C.ar  266  TRP266      0.0152
    134  NE1       36.8340   33.8430   90.9100 N.ar  266  TRP266     -0.2442
    135  CE2       37.4660   34.3960   91.9920 C.ar  266  TRP266      0.0810
    136  CE3       38.0220   36.6060   92.8100 C.ar  266  TRP266      0.0012
    137  CZ2       38.0600   33.7800   93.1000 C.ar  266  TRP266      0.0191
    138  CZ3       38.6140   35.9960   93.9130 C.ar  266  TRP266      0.0001
    139  CH2       38.6270   34.5920   94.0460 C.ar  266  TRP266      0.0015
    140  N         40.1840   34.4980   80.9520 N.3   272  ASP272     -0.1225
    141  CA        40.6670   33.8860   82.1930 C.3   272  ASP272      0.1805
    142  C         39.5200   33.7510   83.1830 C.2   272  ASP272      0.2598
    143  O         39.6370   33.0650   84.2000 O.2   272  ASP272     -0.2718
    144  CB        41.7540   34.7460   82.8510 C.3   272  ASP272      0.1424
    145  CG        42.8930   35.0800   81.9120 C.2   272  ASP272      0.3668
    146  OD1       43.3830   34.1660   81.2130 O.co2 272  ASP272     -0.2456
    147  OD2       43.3050   36.2610   81.8880 O.co2 272  ASP272     -0.2456
    148  N         38.4140   34.4220   82.8830 N.am  273  SER273     -0.1938
    149  CA        37.2410   34.4150   83.7510 C.3   273  SER273      0.2055
    150  C         36.5010   33.0870   83.8410 C.2   273  SER273      0.2643
    151  O         36.3730   32.3550   82.8550 O.2   273  SER273     -0.2714
    152  CB        36.2530   35.4890   83.2970 C.3   273  SER273      0.2130
    153  OG        35.0380   35.3880   84.0150 O.3   273  SER273     -0.2179
    154  N         35.9940   32.7970   85.0350 N.am  274  TRP274     -0.1973
    155  CA        35.2350   31.5810   85.2640 C.3   274  TRP274      0.1640
    156  C         33.9220   31.7030   84.4900 C.2   274  TRP274      0.2290
    157  O         33.2050   30.7200   84.3020 O.2   274  TRP274     -0.2864
    158  CB        34.9670   31.4070   86.7640 C.3   274  TRP274      0.0576
    159  CG        34.1250   32.5000   87.3600 C.ar  274  TRP274      0.0006
    160  CD1       34.2650   33.8440   87.1630 C.ar  274  TRP274      0.0946
    161  CD2       33.0270   32.3410   88.2630 C.ar  274  TRP274      0.0152
    162  NE1       33.3240   34.5320   87.8860 N.ar  274  TRP274     -0.2442
    163  CE2       32.5490   33.6350   88.5730 C.ar  274  TRP274      0.0810
    164  CE3       32.4000   31.2310   88.8450 C.ar  274  TRP274      0.0012
    165  CZ2       31.4710   33.8510   89.4400 C.ar  274  TRP274      0.0191
    166  CZ3       31.3280   31.4460   89.7080 C.ar  274  TRP274      0.0001
    167  CH2       30.8750   32.7480   89.9970 C.ar  274  TRP274      0.0015
@<TRIPOS>BOND
     1   140   141    1
     2   146   145   ar
     3   147   145   ar
     4   145   144    1
     5   141   144    1
     6   141   142    1
     7   151   150    2
     8   148   142   am
     9   148   149    1
    10     8     7    1
    11     8     9    1
    12     4     3    2
    13     7     6    1
    14   142   143    2
    15   152   149    1
    16   152   153    1
    17     6     5    1
    18     5     2    1
    19   149   150    1
    20     2     3    1
    21     2     1    1
    22   150   154   am
    23   157   156    2
    24   156   155    1
    25   154   155    1
    26   155   158    1
    27   158   159    1
    28   160   159   ar
    29   160   162   ar
    30   159   161   ar
    31   129   128    2
    32   162   163   ar
    33    17    16   ar
    34    18    16   ar
    35   161   163   ar
    36   161   164   ar
    37   128   127    1
    38   163   165   ar
    39    16    15    1
    40   164   166   ar
    41   165   167   ar
    42   127   126    1
    43   127   130    1
    44   166   167   ar
    45   130   131    1
    46   132   131   ar
    47   132   134   ar
    48   109   110    2
    49   109   108    1
    50    15    14    1
    51    26    24   am
    52   131   133   ar
    53   113   115   ar
    54   113   112   ar
    55   108   111    1
    56   108   107    1
    57    14    11    1
    58   134   135   ar
    59   111   112    1
    60   115   116   ar
    61   112   114   ar
    62   120   119    2
    63    24    25    2
    64    24    23    1
    65   133   135   ar
    66   133   136   ar
    67   135   137   ar
    68   119   118    1
    69    23    20    1
    70    11    10    1
    71    11    12    1
    72   116   114   ar
    73   136   138   ar
    74    12    19   am
    75    12    13    2
    76   137   139   ar
    77    19    20    1
    78    68    66   am
    79   118   121    1
    80   118   117    1
    81    20    21    1
    82   121   122    1
    83   138   139   ar
    84    35    34    1
    85    66    67    2
    86    66    65    1
    87   101   100    2
    88   124   123   ar
    89    21    22    2
    90    65    64    1
    91   100    99    1
    92   122   123    1
    93   123   125   ar
    94    34    33    1
    95    93    95   ar
    96    93    91   ar
    97    95    96   ar
    98   105   104    2
    99    33    32    1
   100   102    99    1
   101   102   103    1
   102    90    91    1
   103    90    87    1
   104    91    92   ar
   105    99    98    1
   106    96    97    1
   107    96    94   ar
   108    64    61    1
   109    59    57   ar
   110    59    58   ar
   111   104   103    1
   112   104   106   am
   113    61    60    1
   114    61    62    1
   115    92    94   ar
   116    85    83   ar
   117    57    55   ar
   118    32    31    1
   119    45    43   ar
   120    45    44   ar
   121    87    88    1
   122    87    86    1
   123    43    41   ar
   124    58    56   ar
   125    88    89    2
   126    84    83   ar
   127    31    28    1
   128    83    82    1
   129    62    63    2
   130    44    42   ar
   131    41    42   ar
   132    41    40    1
   133    55    54   ar
   134    55    53   ar
   135    27    28    1
   136    56    53   ar
   137    40    37    1
   138    39    38    2
   139    28    29    1
   140    76    74   am
   141    54    52   ar
   142    53    51   ar
   143    82    81    1
   144    29    30    2
   145    38    37    1
   146    37    36    1
   147    75    74    2
   148    81    78    1
   149    74    73    1
   150    52    51   ar
   151    51    50    1
   152    73    70    1
   153    78    77    1
   154    78    79    1
   155    50    47    1
   156    77    71   am
   157    80    79    2
   158    71    70    1
   159    71    72    2
   160    48    49    2
   161    48    47    1
   162    70    69    1
   163    47    46    1
