@<TRIPOS>MOLECULE
tmp/1v6uA02.pdb
 84 79 0 0 0
SMALL
GASTEIGER

@<TRIPOS>ATOM
      1  N         11.2780   28.3760   81.2110 N.3   373  ASN373     -0.1225
      2  CA         9.9370   28.9480   81.3130 C.3   373  ASN373      0.1785
      3  C          9.8550   29.7250   82.6180 C.2   373  ASN373      0.2597
      4  O         10.4020   29.2950   83.6300 O.2   373  ASN373     -0.2718
      5  CB         8.8570   27.8560   81.3240 C.3   373  ASN373      0.1169
      6  CG         8.6680   27.1920   79.9710 C.2   373  ASN373      0.2627
      7  OD1        8.6470   27.8540   78.9320 O.2   373  ASN373     -0.2716
      8  ND2        8.5030   25.8750   79.9820 N.am  373  ASN373     -0.0877
      9  N          9.1730   30.8650   82.5940 N.am  374  GLY374     -0.1957
     10  CA         9.0380   31.6680   83.7940 C.3   374  GLY374      0.1869
     11  C         10.1270   32.7060   83.9840 C.2   374  GLY374      0.2309
     12  O         10.0140   33.5760   84.8500 O.2   374  GLY374     -0.2863
     13  N          5.9600   36.3510   76.8330 N.3   408  ASP408     -0.1225
     14  CA         4.6740   35.8600   77.2800 C.3   408  ASP408      0.1805
     15  C          4.0880   36.6640   78.4460 C.2   408  ASP408      0.2598
     16  O          4.7510   36.8640   79.4650 O.2   408  ASP408     -0.2718
     17  CB         4.8910   34.3920   77.6860 C.3   408  ASP408      0.1424
     18  CG         3.6280   33.6900   78.1020 C.2   408  ASP408      0.3668
     19  OD1        2.9760   34.1380   79.0670 O.co2 408  ASP408     -0.2456
     20  OD2        3.2970   32.6690   77.4650 O.co2 408  ASP408     -0.2456
     21  N          2.8460   37.1200   78.2890 N.am  409  ALA409     -0.1966
     22  CA         2.1610   37.8630   79.3380 C.3   409  ALA409      0.1728
     23  C          1.7410   36.8200   80.3660 C.2   409  ALA409      0.2616
     24  O          0.8640   36.0010   80.0990 O.2   409  ALA409     -0.2715
     25  CB         0.9370   38.5710   78.7740 C.3   409  ALA409      0.0334
     26  N          2.3790   36.8550   81.5330 N.am  410  VAL410     -0.1963
     27  CA         2.1190   35.8990   82.6070 C.3   410  VAL410      0.1727
     28  C          0.6490   35.5270   82.8210 C.2   410  VAL410      0.2617
     29  O         -0.1970   36.3830   83.0840 O.2   410  VAL410     -0.2715
     30  CB         2.6980   36.4120   83.9460 C.3   410  VAL410      0.0290
     31  CG1        2.5110   35.3630   85.0320 C.3   410  VAL410      0.0023
     32  CG2        4.1710   36.7310   83.7820 C.3   410  VAL410      0.0023
     33  N          0.3620   34.2310   82.7080 N.am  411  GLY411     -0.1940
     34  CA        -0.9900   33.7350   82.9030 C.3   411  GLY411      0.2014
     35  C         -2.0190   34.2560   81.9170 C.2   411  GLY411      0.2639
     36  O         -3.2230   34.1270   82.1460 O.2   411  GLY411     -0.2714
     37  N         -1.5510   34.8370   80.8180 N.am  412  GLY412     -0.1954
     38  CA        -2.4630   35.3740   79.8250 C.3   412  GLY412      0.1869
     39  C         -3.1610   36.6270   80.3230 C.2   412  GLY412      0.2309
     40  O         -4.2310   36.9860   79.8340 O.2   412  GLY412     -0.2863
     41  N          7.2280   37.4370   80.8060 N.3   421  GLN421     -0.1245
     42  CA         8.1780   36.3540   81.0470 C.3   421  GLN421      0.1566
     43  C          8.4980   35.5840   79.7730 C.2   421  GLN421      0.2260
     44  O          7.9570   35.8730   78.7090 O.2   421  GLN421     -0.2867
     45  CB         7.5970   35.3650   82.0520 C.3   421  GLN421      0.0367
     46  CG         6.1980   34.8940   81.6790 C.3   421  GLN421      0.0905
     47  CD         5.7850   33.6340   82.4120 C.2   421  GLN421      0.2608
     48  OE1        6.1290   33.4340   83.5780 O.2   421  GLN421     -0.2717
     49  NE2        5.0330   32.7810   81.7320 N.am  421  GLN421     -0.0878
     50  N          8.4560   31.8840   77.8910 N.3   423  TYR423     -0.1241
     51  CA         7.7180   30.6380   77.9850 C.3   423  TYR423      0.1605
     52  C          7.6060   29.9500   76.6310 C.2   423  TYR423      0.2264
     53  O          7.5770   30.6110   75.5900 O.2   423  TYR423     -0.2867
     54  CB         6.3250   30.8890   78.5660 C.3   423  TYR423      0.0534
     55  CG         5.7290   29.6590   79.2080 C.ar  423  TYR423     -0.0201
     56  CD1        5.1850   28.6340   78.4320 C.ar  423  TYR423     -0.0009
     57  CD2        5.7600   29.4940   80.5940 C.ar  423  TYR423     -0.0009
     58  CE1        4.6910   27.4680   79.0190 C.ar  423  TYR423      0.0417
     59  CE2        5.2680   28.3350   81.1940 C.ar  423  TYR423      0.0417
     60  CZ         4.7370   27.3270   80.4020 C.ar  423  TYR423      0.1957
     61  OH         4.2560   26.1810   80.9930 O.3   423  TYR423     -0.2866
     62  N          3.4480   29.1660   72.1920 N.3   426  SER426     -0.1217
     63  CA         2.1720   28.4700   72.0860 C.3   426  SER426      0.1889
     64  C          1.2160   29.0370   71.0400 C.2   426  SER426      0.2288
     65  O          0.1210   28.5070   70.8500 O.2   426  SER426     -0.2866
     66  CB         1.4740   28.5130   73.4420 C.3   426  SER426      0.2089
     67  OG         1.1830   29.8600   73.7930 O.3   426  SER426     -0.2183
     68  N         -1.3750   35.9280   74.0060 N.3   430  ASN430     -0.1225
     69  CA        -0.5600   36.6240   75.0000 C.3   430  ASN430      0.1785
     70  C          0.9190   36.4720   74.6670 C.2   430  ASN430      0.2597
     71  O          1.7820   36.8480   75.4530 O.2   430  ASN430     -0.2718
     72  CB        -0.8550   36.0980   76.4170 C.3   430  ASN430      0.1169
     73  CG        -0.4700   34.6380   76.5980 C.2   430  ASN430      0.2627
     74  OD1       -0.7840   33.7970   75.7550 O.2   430  ASN430     -0.2716
     75  ND2        0.1990   34.3280   77.7110 N.am  430  ASN430     -0.0877
     76  N          1.1890   35.9100   73.4920 N.am  431  GLN431     -0.1979
     77  CA         2.5480   35.7170   72.9960 C.3   431  GLN431      0.1601
     78  C          2.6650   36.3350   71.5940 C.2   431  GLN431      0.2287
     79  O          3.6920   36.1960   70.9280 O.2   431  GLN431     -0.2864
     80  CB         2.9020   34.2230   72.9300 C.3   431  GLN431      0.0394
     81  CG         3.2810   33.5860   74.2760 C.3   431  GLN431      0.0908
     82  CD         3.7660   32.1440   74.1330 C.2   431  GLN431      0.2608
     83  OE1        4.0300   31.6680   73.0290 O.2   431  GLN431     -0.2717
     84  NE2        3.8950   31.4500   75.2540 N.am  431  GLN431     -0.0878
@<TRIPOS>BOND
     1    65    64    2
     2    79    78    2
     3    64    63    1
     4    78    77    1
     5    63    62    1
     6    63    66    1
     7    80    77    1
     8    80    81    1
     9    77    76    1
    10    83    82    2
    11    66    67    1
    12    76    70   am
    13    68    69    1
    14    82    81    1
    15    82    84   am
    16    70    69    1
    17    70    71    2
    18    69    72    1
    19    53    52    2
    20    74    73    2
    21    72    73    1
    22    73    75   am
    23    52    51    1
    24    13    14    1
    25    14    17    1
    26    14    15    1
    27    20    18   ar
    28    17    18    1
    29    50    51    1
    30    51    54    1
    31    18    19   ar
    32    21    15   am
    33    21    22    1
    34    56    58   ar
    35    56    55   ar
    36    15    16    2
    37    54    55    1
    38    44    43    2
    39    25    22    1
    40     7     6    2
    41    58    60   ar
    42    55    57   ar
    43    22    23    1
    44    43    42    1
    45    38    39    1
    46    38    37    1
    47    40    39    2
    48     6     8   am
    49     6     5    1
    50    24    23    2
    51    23    26   am
    52    60    61    1
    53    60    59   ar
    54    57    59   ar
    55    41    42    1
    56    37    35   am
    57    42    45    1
    58     1     2    1
    59     2     5    1
    60     2     3    1
    61    26    27    1
    62    46    45    1
    63    46    47    1
    64    49    47   am
    65    35    36    2
    66    35    34    1
    67    47    48    2
    68     9     3   am
    69     9    10    1
    70    27    28    1
    71    27    30    1
    72     3     4    2
    73    33    28   am
    74    33    34    1
    75    28    29    2
    76    32    30    1
    77    10    11    1
    78    30    31    1
    79    11    12    2
