@<TRIPOS>MOLECULE
tmp/1v6vA03.pdb
 92 89 0 0 0
SMALL
GASTEIGER

@<TRIPOS>ATOM
      1  N          6.4340   37.2900   78.6940 N.3   408  ASP408     -0.1225
      2  CA         5.1340   36.8610   79.1890 C.3   408  ASP408      0.1805
      3  C          4.6240   37.7120   80.3480 C.2   408  ASP408      0.2598
      4  O          5.3600   37.9730   81.3020 O.2   408  ASP408     -0.2718
      5  CB         5.3010   35.3900   79.6110 C.3   408  ASP408      0.1424
      6  CG         4.0500   34.7830   80.2020 C.2   408  ASP408      0.3668
      7  OD1        3.6150   35.2300   81.2810 O.co2 408  ASP408     -0.2456
      8  OD2        3.5180   33.8350   79.5860 O.co2 408  ASP408     -0.2456
      9  N          3.3700   38.1560   80.2580 N.am  409  ALA409     -0.1966
     10  CA         2.7750   38.9490   81.3320 C.3   409  ALA409      0.1728
     11  C          2.3360   37.9460   82.3970 C.2   409  ALA409      0.2616
     12  O          1.4240   37.1510   82.1730 O.2   409  ALA409     -0.2715
     13  CB         1.5720   39.7470   80.8140 C.3   409  ALA409      0.0334
     14  N          2.9980   37.9930   83.5500 N.am  410  VAL410     -0.1963
     15  CA         2.7380   37.0750   84.6570 C.3   410  VAL410      0.1727
     16  C          1.2780   36.7520   84.9610 C.2   410  VAL410      0.2617
     17  O          0.4580   37.6460   85.1610 O.2   410  VAL410     -0.2715
     18  CB         3.4030   37.5820   85.9560 C.3   410  VAL410      0.0290
     19  CG1        3.0930   36.6360   87.1050 C.3   410  VAL410      0.0023
     20  CG2        4.9130   37.6880   85.7580 C.3   410  VAL410      0.0023
     21  N          0.9800   35.4550   85.0010 N.am  411  GLY411     -0.1940
     22  CA        -0.3630   34.9840   85.2990 C.3   411  GLY411      0.2014
     23  C         -1.4300   35.4430   84.3310 C.2   411  GLY411      0.2639
     24  O         -2.6220   35.3700   84.6340 O.2   411  GLY411     -0.2714
     25  N         -1.0110   35.9060   83.1580 N.am  412  GLY412     -0.1954
     26  CA        -1.9670   36.3830   82.1780 C.3   412  GLY412      0.1869
     27  C         -2.5780   37.6950   82.6250 C.2   412  GLY412      0.2309
     28  O         -3.5970   38.1310   82.0900 O.2   412  GLY412     -0.2863
     29  N          7.8140   38.3070   82.6680 N.3   421  GLN421     -0.1245
     30  CA         8.7030   37.1770   82.9040 C.3   421  GLN421      0.1566
     31  C          8.9210   36.4230   81.5970 C.2   421  GLN421      0.2260
     32  O          8.3800   36.7950   80.5520 O.2   421  GLN421     -0.2867
     33  CB         8.0490   36.2090   83.8940 C.3   421  GLN421      0.0367
     34  CG         6.9070   35.4020   83.2470 C.3   421  GLN421      0.0905
     35  CD         6.1350   34.5320   84.2240 C.2   421  GLN421      0.2608
     36  OE1        6.6760   34.0680   85.2300 O.2   421  GLN421     -0.2717
     37  NE2        4.8610   34.2880   83.9160 N.am  421  GLN421     -0.0878
     38  N          8.5900   32.6550   79.7010 N.3   423  TYR423     -0.1227
     39  CA         7.7760   31.4500   79.8250 C.3   423  TYR423      0.1736
     40  C          7.6260   30.7690   78.4750 C.2   423  TYR423      0.2596
     41  O          7.6320   31.4290   77.4370 O.2   423  TYR423     -0.2718
     42  CB         6.3930   31.7800   80.4000 C.3   423  TYR423      0.0548
     43  CG         6.0090   30.8690   81.5480 C.ar  423  TYR423     -0.0200
     44  CD1        5.5780   29.5640   81.3170 C.ar  423  TYR423     -0.0009
     45  CD2        6.1400   31.2950   82.8680 C.ar  423  TYR423     -0.0009
     46  CE1        5.2900   28.7020   82.3750 C.ar  423  TYR423      0.0417
     47  CE2        5.8570   30.4410   83.9350 C.ar  423  TYR423      0.0417
     48  CZ         5.4350   29.1470   83.6800 C.ar  423  TYR423      0.1957
     49  OH         5.1750   28.3000   84.7330 O.3   423  TYR423     -0.2866
     50  N          7.5050   29.4460   78.4910 N.am  424  SER424     -0.1938
     51  CA         7.3420   28.6900   77.2580 C.3   424  SER424      0.2055
     52  C          6.3380   29.3960   76.3620 C.2   424  SER424      0.2643
     53  O          5.2560   29.7790   76.8110 O.2   424  SER424     -0.2714
     54  CB         6.8450   27.2760   77.5630 C.3   424  SER424      0.2130
     55  OG         7.7600   26.5930   78.3970 O.3   424  SER424     -0.2179
     56  N          6.7000   29.5700   75.0950 N.am  425  CYS425     -0.1953
     57  CA         5.8250   30.2360   74.1390 C.3   425  CYS425      0.1843
     58  C          4.5410   29.4340   73.9650 C.2   425  CYS425      0.2626
     59  O          4.5770   28.2210   73.7660 O.2   425  CYS425     -0.2714
     60  CB         6.5440   30.3960   72.8100 C.3   425  CYS425      0.0997
     61  SG         8.0660   31.3940   72.9270 S.3   425  CYS425     -0.0797
     62  N          3.4080   30.1260   74.0210 N.am  426  SER426     -0.1936
     63  CA         2.1110   29.4670   73.9370 C.3   426  SER426      0.2055
     64  C          1.1250   30.0760   72.9540 C.2   426  SER426      0.2643
     65  O          0.0300   29.5440   72.7770 O.2   426  SER426     -0.2714
     66  CB         1.4670   29.4910   75.3140 C.3   426  SER426      0.2130
     67  OG         1.2490   30.8390   75.6950 O.3   426  SER426     -0.2179
     68  N          1.4990   31.1890   72.3330 N.am  427  ASN427     -0.1971
     69  CA         0.6170   31.8790   71.3970 C.3   427  ASN427      0.1688
     70  C         -0.4800   32.6180   72.1640 C.2   427  ASN427      0.2292
     71  O         -1.4410   33.1070   71.5730 O.2   427  ASN427     -0.2864
     72  CB        -0.0190   30.8880   70.4140 C.3   427  ASN427      0.1181
     73  CG         0.9940   30.2610   69.4830 C.2   427  ASN427      0.2629
     74  OD1        1.6860   30.9590   68.7410 O.2   427  ASN427     -0.2716
     75  ND2        1.0880   28.9370   69.5140 N.am  427  ASN427     -0.0877
     76  N         -1.1670   37.0820   76.1810 N.3   430  ASN430     -0.1225
     77  CA        -0.2740   37.6910   77.1680 C.3   430  ASN430      0.1785
     78  C          1.1870   37.5080   76.7580 C.2   430  ASN430      0.2597
     79  O          2.0990   37.7910   77.5330 O.2   430  ASN430     -0.2718
     80  CB        -0.5070   37.0740   78.5530 C.3   430  ASN430      0.1169
     81  CG        -0.0420   35.6330   78.6380 C.2   430  ASN430      0.2627
     82  OD1       -0.2880   34.8370   77.7350 O.2   430  ASN430     -0.2716
     83  ND2        0.6210   35.2870   79.7360 N.am  430  ASN430     -0.0877
     84  N          1.3930   37.0230   75.5360 N.am  431  GLN431     -0.1979
     85  CA         2.7310   36.8110   74.9880 C.3   431  GLN431      0.1601
     86  C          2.7970   37.4300   73.5980 C.2   431  GLN431      0.2287
     87  O          3.7720   37.2450   72.8700 O.2   431  GLN431     -0.2864
     88  CB         3.0500   35.3160   74.8740 C.3   431  GLN431      0.0394
     89  CG         3.3400   34.6140   76.1880 C.3   431  GLN431      0.0908
     90  CD         3.8420   33.1950   75.9840 C.2   431  GLN431      0.2608
     91  OE1        3.9980   32.7360   74.8520 O.2   431  GLN431     -0.2717
     92  NE2        4.1010   32.4950   77.0800 N.am  431  GLN431     -0.0878
@<TRIPOS>BOND
     1    74    73    2
     2    73    75   am
     3    73    72    1
     4    72    69    1
     5    69    70    1
     6    69    68    1
     7    71    70    2
     8    68    64   am
     9    65    64    2
    10    60    61    1
    11    60    57    1
    12    87    86    2
    13    64    63    1
    14    86    85    1
    15    59    58    2
    16    63    62    1
    17    63    66    1
    18    58    62   am
    19    58    57    1
    20    57    56    1
    21    91    90    2
    22    88    85    1
    23    88    89    1
    24    85    84    1
    25    56    52   am
    26    66    67    1
    27    84    78   am
    28    90    89    1
    29    90    92   am
    30    76    77    1
    31    52    53    2
    32    52    51    1
    33    78    77    1
    34    78    79    2
    35    77    80    1
    36    51    54    1
    37    51    50    1
    38    41    40    2
    39    54    55    1
    40    82    81    2
    41    40    50   am
    42    40    39    1
    43    80    81    1
    44    81    83   am
    45     1     2    1
    46     2     5    1
    47     2     3    1
    48     8     6   ar
    49     5     6    1
    50    38    39    1
    51    39    42    1
    52     6     7   ar
    53     9     3   am
    54     9    10    1
    55     3     4    2
    56    42    43    1
    57    32    31    2
    58    13    10    1
    59    44    43   ar
    60    44    46   ar
    61    10    11    1
    62    43    45   ar
    63    31    30    1
    64    28    27    2
    65    12    11    2
    66    26    27    1
    67    26    25    1
    68    46    48   ar
    69    11    14   am
    70    29    30    1
    71    45    47   ar
    72    30    33    1
    73    25    23   am
    74    34    33    1
    75    34    35    1
    76    14    15    1
    77    48    47   ar
    78    48    49    1
    79    37    35   am
    80    35    36    2
    81    23    24    2
    82    23    22    1
    83    15    16    1
    84    15    18    1
    85    16    21   am
    86    16    17    2
    87    21    22    1
    88    20    18    1
    89    18    19    1
