@<TRIPOS>MOLECULE
tmp/1v6vA00.pdb
 167 163 0 0 0
SMALL
GASTEIGER

@<TRIPOS>ATOM
      1  N         31.2660   17.0970   60.8830 N.3    24  LYS24      -0.1245
      2  CA        30.2750   17.5150   61.8710 C.3    24  LYS24       0.1561
      3  C         28.9400   16.7880   61.7140 C.2    24  LYS24       0.2260
      4  O         28.0190   16.9970   62.5030 O.2    24  LYS24      -0.2867
      5  CB        30.0480   19.0270   61.7690 C.3    24  LYS24       0.0271
      6  CG        31.2930   19.8740   62.0240 C.3    24  LYS24       0.0035
      7  CD        31.0130   21.3500   61.7430 C.3    24  LYS24       0.0206
      8  CE        32.2100   22.2320   62.0810 C.3    24  LYS24       0.1093
      9  NZ        32.5170   22.2000   63.5370 N.3    24  LYS24      -0.1314
     10  N         31.8830   22.6770   52.4230 N.3    44  GLU44      -0.1231
     11  CA        32.7920   23.7310   52.8450 C.3    44  GLU44       0.1699
     12  C         34.2240   23.5270   52.3440 C.2    44  GLU44       0.2592
     13  O         34.9010   24.4960   52.0090 O.2    44  GLU44      -0.2718
     14  CB        32.7850   23.8680   54.3790 C.3    44  GLU44       0.0402
     15  CG        33.7180   24.9660   54.8920 C.3    44  GLU44       0.1161
     16  CD        33.6610   25.1670   56.4010 C.2    44  GLU44       0.3649
     17  OE1       33.3700   24.1990   57.1330 O.co2  44  GLU44      -0.2457
     18  OE2       33.9280   26.2990   56.8590 O.co2  44  GLU44      -0.2457
     19  N         34.6740   22.2750   52.2780 N.am   45  ASN45      -0.1974
     20  CA        36.0400   21.9810   51.8300 C.3    45  ASN45       0.1688
     21  C         36.2050   20.6860   51.0400 C.2    45  ASN45       0.2292
     22  O         37.1500   20.5440   50.2640 O.2    45  ASN45      -0.2864
     23  CB        36.9840   21.8940   53.0350 C.3    45  ASN45       0.1181
     24  CG        37.2330   23.2290   53.6840 C.2    45  ASN45       0.2629
     25  OD1       37.7880   24.1330   53.0650 O.2    45  ASN45      -0.2716
     26  ND2       36.8280   23.3630   54.9430 N.am   45  ASN45      -0.0877
     27  N         36.8470   20.6060   47.0570 N.3    48  LYS48      -0.1245
     28  CA        37.8970   21.4670   46.5380 C.3    48  LYS48       0.1561
     29  C         38.9450   20.6140   45.8240 C.2    48  LYS48       0.2260
     30  O         38.9110   19.3850   45.8990 O.2    48  LYS48      -0.2867
     31  CB        38.5070   22.2870   47.6780 C.3    48  LYS48       0.0271
     32  CG        37.5360   23.3450   48.1950 C.3    48  LYS48       0.0035
     33  CD        38.0450   24.1210   49.4040 C.3    48  LYS48       0.0206
     34  CE        37.0450   25.2100   49.7780 C.3    48  LYS48       0.1093
     35  NZ        37.4540   25.9960   50.9780 N.3    48  LYS48      -0.1314
     36  N         31.6480   22.9990   44.7440 N.3    81  HIS81      -0.1241
     37  CA        32.6320   24.0400   45.0490 C.3    81  HIS81       0.1621
     38  C         33.9760   23.4000   45.4180 C.2    81  HIS81       0.2264
     39  O         34.0340   22.6530   46.3960 O.2    81  HIS81      -0.2867
     40  CB        32.1020   24.8490   46.2390 C.3    81  HIS81       0.0745
     41  CG        33.0110   25.9440   46.7010 C.ar   81  HIS81       0.0817
     42  ND1       33.0500   27.1840   46.1000 N.ar   81  HIS81      -0.2268
     43  CD2       33.8700   26.0060   47.7460 C.ar   81  HIS81       0.1154
     44  CE1       33.8900   27.9640   46.7560 C.ar   81  HIS81       0.1986
     45  NE2       34.4010   27.2730   47.7610 N.ar   81  HIS81      -0.2212
     46  N         40.7480   26.9270   41.0220 N.3    85  TRP85      -0.1241
     47  CA        41.0250   27.9670   41.9960 C.3    85  TRP85       0.1605
     48  C         42.5220   28.0380   42.2860 C.2    85  TRP85       0.2264
     49  O         43.2200   27.0280   42.2060 O.2    85  TRP85      -0.2867
     50  CB        40.2340   27.6180   43.2600 C.3    85  TRP85       0.0550
     51  CG        40.1620   28.6510   44.3280 C.ar   85  TRP85       0.0003
     52  CD1       40.3030   30.0030   44.1900 C.ar   85  TRP85       0.0946
     53  CD2       39.8250   28.4200   45.7000 C.ar   85  TRP85       0.0152
     54  NE1       40.0700   30.6290   45.3950 N.ar   85  TRP85      -0.2442
     55  CE2       39.7750   29.6780   46.3380 C.ar   85  TRP85       0.0810
     56  CE3       39.5570   27.2670   46.4510 C.ar   85  TRP85       0.0012
     57  CZ2       39.4680   29.8170   47.6970 C.ar   85  TRP85       0.0191
     58  CZ3       39.2490   27.4070   47.8050 C.ar   85  TRP85       0.0001
     59  CH2       39.2090   28.6720   48.4100 C.ar   85  TRP85       0.0015
     60  N         44.1050   26.5910   47.9500 N.3    88  GLN88      -0.1245
     61  CA        43.8750   25.2120   48.3560 C.3    88  GLN88       0.1566
     62  C         44.1130   24.1840   47.2560 C.2    88  GLN88       0.2260
     63  O         43.3910   23.1900   47.1470 O.2    88  GLN88      -0.2867
     64  CB        42.4670   25.0570   48.9470 C.3    88  GLN88       0.0367
     65  CG        42.3940   25.4620   50.4200 C.3    88  GLN88       0.0905
     66  CD        40.9890   25.3870   50.9940 C.2    88  GLN88       0.2608
     67  OE1       40.1740   26.2850   50.7890 O.2    88  GLN88      -0.2717
     68  NE2       40.6990   24.3070   51.7130 N.am   88  GLN88      -0.0878
     69  N         36.9050   30.1070   40.7170 N.3   127  ASN127     -0.1225
     70  CA        36.7660   30.8680   41.9500 C.3   127  ASN127      0.1785
     71  C         37.8500   31.9420   42.0660 C.2   127  ASN127      0.2597
     72  O         39.0170   31.6980   41.7470 O.2   127  ASN127     -0.2718
     73  CB        36.8640   29.9050   43.1480 C.3   127  ASN127      0.1169
     74  CG        36.2610   30.4730   44.4250 C.2   127  ASN127      0.2627
     75  OD1       36.6830   30.1210   45.5300 O.2   127  ASN127     -0.2716
     76  ND2       35.2590   31.3320   44.2840 N.am  127  ASN127     -0.0877
     77  N         37.4400   33.1320   42.4950 N.am  128  GLU128     -0.1979
     78  CA        38.3300   34.2720   42.7350 C.3   128  GLU128      0.1602
     79  C         39.4620   34.4900   41.7340 C.2   128  GLU128      0.2287
     80  O         40.6390   34.4410   42.1010 O.2   128  GLU128     -0.2864
     81  CB        38.9200   34.1390   44.1420 C.3   128  GLU128      0.0415
     82  CG        37.9940   33.3970   45.1010 C.3   128  GLU128      0.1163
     83  CD        38.5320   33.3080   46.5140 C.2   128  GLU128      0.3649
     84  OE1       39.7590   33.1440   46.6870 O.co2 128  GLU128     -0.2457
     85  OE2       37.7190   33.3840   47.4570 O.co2 128  GLU128     -0.2457
     86  N         34.6390   37.1310   45.5990 N.3   172  TYR172     -0.1241
     87  CA        34.2750   37.9950   46.7190 C.3   172  TYR172      0.1605
     88  C         34.6330   39.4480   46.4040 C.2   172  TYR172      0.2264
     89  O         35.3700   39.7290   45.4540 O.2   172  TYR172     -0.2867
     90  CB        34.9900   37.5580   48.0050 C.3   172  TYR172      0.0534
     91  CG        36.4940   37.6920   47.9440 C.ar  172  TYR172     -0.0201
     92  CD1       37.2750   36.7230   47.3160 C.ar  172  TYR172     -0.0009
     93  CD2       37.1360   38.8100   48.4820 C.ar  172  TYR172     -0.0009
     94  CE1       38.6610   36.8620   47.2210 C.ar  172  TYR172      0.0417
     95  CE2       38.5230   38.9600   48.3910 C.ar  172  TYR172      0.0417
     96  CZ        39.2750   37.9820   47.7600 C.ar  172  TYR172      0.1957
     97  OH        40.6410   38.1220   47.6690 O.3   172  TYR172     -0.2866
     98  N         30.0280   35.7590   46.7550 N.3   205  GLN205     -0.1245
     99  CA        30.3040   35.1830   48.0670 C.3   205  GLN205      0.1566
    100  C         29.6160   35.9230   49.2020 C.2   205  GLN205      0.2260
    101  O         29.0850   35.3000   50.1190 O.2   205  GLN205     -0.2867
    102  CB        31.8160   35.1070   48.3000 C.3   205  GLN205      0.0367
    103  CG        32.5140   34.1930   47.2950 C.3   205  GLN205      0.0905
    104  CD        34.0010   34.0360   47.5620 C.2   205  GLN205      0.2608
    105  OE1       34.7380   33.4740   46.7440 O.2   205  GLN205     -0.2717
    106  NE2       34.4470   34.5240   48.7100 N.am  205  GLN205     -0.0878
    107  N         30.8700   38.0390   51.6860 N.3   207  HIS207     -0.1241
    108  CA        31.5240   37.9970   52.9890 C.3   207  HIS207      0.1621
    109  C         31.6340   39.4640   53.4150 C.2   207  HIS207      0.2264
    110  O         32.6070   40.1510   53.0920 O.2   207  HIS207     -0.2867
    111  CB        32.9190   37.3630   52.8860 C.3   207  HIS207      0.0745
    112  CG        32.8950   35.8840   52.6570 C.ar  207  HIS207      0.0817
    113  ND1       32.3650   34.9980   53.5720 N.ar  207  HIS207     -0.2268
    114  CD2       33.3420   35.1320   51.6230 C.ar  207  HIS207      0.1154
    115  CE1       32.4850   33.7660   53.1110 C.ar  207  HIS207      0.1986
    116  NE2       33.0750   33.8190   51.9310 N.ar  207  HIS207     -0.2212
    117  N         28.2010   32.5360   49.7730 N.3   236  GLU236     -0.1245
    118  CA        28.8990   32.2870   51.0360 C.3   236  GLU236      0.1567
    119  C         28.6240   33.3730   52.0520 C.2   236  GLU236      0.2260
    120  O         29.5160   33.7970   52.7820 O.2   236  GLU236     -0.2867
    121  CB        30.4050   32.2200   50.7660 C.3   236  GLU236      0.0388
    122  CG        30.7810   31.2510   49.6570 C.3   236  GLU236      0.1160
    123  CD        32.2710   31.2320   49.3770 C.2   236  GLU236      0.3649
    124  OE1       33.0360   31.7190   50.2300 O.co2 236  GLU236     -0.2457
    125  OE2       32.6740   30.7140   48.3110 O.co2 236  GLU236     -0.2457
    126  N         27.5620   30.8570   54.8420 N.3   266  TRP266     -0.1241
    127  CA        28.7590   30.0330   54.9670 C.3   266  TRP266      0.1605
    128  C         28.9280   29.3400   56.3130 C.2   266  TRP266      0.2264
    129  O         29.8630   29.6310   57.0680 O.2   266  TRP266     -0.2867
    130  CB        29.9990   30.8750   54.6380 C.3   266  TRP266      0.0550
    131  CG        31.1520   30.0660   54.1080 C.ar  266  TRP266      0.0003
    132  CD1       32.4140   30.0010   54.6280 C.ar  266  TRP266      0.0946
    133  CD2       31.1380   29.1810   52.9770 C.ar  266  TRP266      0.0152
    134  NE1       33.1850   29.1280   53.8970 N.ar  266  TRP266     -0.2442
    135  CE2       32.4290   28.6100   52.8780 C.ar  266  TRP266      0.0810
    136  CE3       30.1610   28.8140   52.0400 C.ar  266  TRP266      0.0012
    137  CZ2       32.7700   27.6890   51.8790 C.ar  266  TRP266      0.0191
    138  CZ3       30.5000   27.8960   51.0440 C.ar  266  TRP266      0.0001
    139  CH2       31.7970   27.3450   50.9740 C.ar  266  TRP266      0.0015
    140  N         30.9150   27.1410   63.8960 N.3   272  ASP272     -0.1225
    141  CA        31.2850   26.3820   62.7030 C.3   272  ASP272      0.1805
    142  C         31.8890   27.3020   61.6490 C.2   272  ASP272      0.2598
    143  O         32.3630   26.8410   60.6100 O.2   272  ASP272     -0.2718
    144  CB        30.0540   25.7020   62.0870 C.3   272  ASP272      0.1424
    145  CG        29.3310   24.8000   63.0610 C.2   272  ASP272      0.3668
    146  OD1       30.0060   23.9930   63.7300 O.co2 272  ASP272     -0.2456
    147  OD2       28.0850   24.8880   63.1470 O.co2 272  ASP272     -0.2456
    148  N         31.8620   28.6010   61.9230 N.am  273  SER273     -0.1938
    149  CA        32.3590   29.6070   60.9900 C.3   273  SER273      0.2055
    150  C         33.8690   29.6770   60.8570 C.2   273  SER273      0.2643
    151  O         34.6060   29.4360   61.8160 O.2   273  SER273     -0.2714
    152  CB        31.8370   30.9920   61.3920 C.3   273  SER273      0.2130
    153  OG        32.3380   32.0020   60.5270 O.3   273  SER273     -0.2179
    154  N         34.3200   30.0190   59.6540 N.am  274  TRP274     -0.1973
    155  CA        35.7390   30.1700   59.3900 C.3   274  TRP274      0.1640
    156  C         36.1650   31.4820   60.0350 C.2   274  TRP274      0.2290
    157  O         37.3540   31.7720   60.1440 O.2   274  TRP274     -0.2864
    158  CB        36.0080   30.2050   57.8790 C.3   274  TRP274      0.0576
    159  CG        35.4280   31.3950   57.1580 C.ar  274  TRP274      0.0006
    160  CD1       34.1430   31.8640   57.2320 C.ar  274  TRP274      0.0946
    161  CD2       36.1050   32.2330   56.2100 C.ar  274  TRP274      0.0152
    162  NE1       33.9810   32.9390   56.3860 N.ar  274  TRP274     -0.2442
    163  CE2       35.1700   33.1850   55.7480 C.ar  274  TRP274      0.0810
    164  CE3       37.4130   32.2690   55.7060 C.ar  274  TRP274      0.0012
    165  CZ2       35.5010   34.1640   54.8030 C.ar  274  TRP274      0.0191
    166  CZ3       37.7430   33.2430   54.7650 C.ar  274  TRP274      0.0001
    167  CH2       36.7890   34.1760   54.3240 C.ar  274  TRP274      0.0015
@<TRIPOS>BOND
     1    69    70    1
     2    46    47    1
     3    79    80    2
     4    79    78    1
     5    72    71    2
     6    70    71    1
     7    70    73    1
     8    47    48    1
     9    47    50    1
    10    71    77   am
    11    49    48    2
    12    77    78    1
    13    78    81    1
    14    73    74    1
    15    50    51    1
    16    81    82    1
    17    52    51   ar
    18    52    54   ar
    19    76    74   am
    20    51    53   ar
    21    74    75    2
    22    36    37    1
    23    37    38    1
    24    37    40    1
    25    82    83    1
    26    54    55   ar
    27    38    39    2
    28    89    88    2
    29    86    87    1
    30    53    55   ar
    31    53    56   ar
    32    29    30    2
    33    29    28    1
    34    42    41   ar
    35    42    44   ar
    36    40    41    1
    37    55    57   ar
    38    88    87    1
    39    56    58   ar
    40    83    84   ar
    41    83    85   ar
    42    28    27    1
    43    28    31    1
    44    41    43   ar
    45    87    90    1
    46   105   104    2
    47    98    99    1
    48    44    45   ar
    49    63    62    2
    50    94    92   ar
    51    94    96   ar
    52    62    61    1
    53   103   104    1
    54   103   102    1
    55    92    91   ar
    56   104   106   am
    57    97    96    1
    58    31    32    1
    59    57    59   ar
    60    43    45   ar
    61    96    95   ar
    62    58    59   ar
    63    91    90    1
    64    91    93   ar
    65    60    61    1
    66    99   102    1
    67    99   100    1
    68    32    33    1
    69   125   123   ar
    70    61    64    1
    71    95    93   ar
    72    64    65    1
    73   100   101    2
    74   123   122    1
    75   123   124   ar
    76    33    34    1
    77   122   121    1
    78   117   118    1
    79    34    35    1
    80    22    21    2
    81    65    66    1
    82   121   118    1
    83    67    66    2
    84   139   138   ar
    85   139   137   ar
    86    66    68   am
    87   118   119    1
    88    21    20    1
    89   138   136   ar
    90   114   116   ar
    91   114   112   ar
    92   107   108    1
    93    20    19    1
    94    20    23    1
    95   137   135   ar
    96   116   115   ar
    97    13    12    2
    98   136   133   ar
    99   119   120    2
   100    19    12   am
   101    12    11    1
   102    10    11    1
   103   112   111    1
   104   112   113   ar
   105    11    14    1
   106   135   133   ar
   107   135   134   ar
   108   111   108    1
   109   133   131   ar
   110   108   109    1
   111    23    24    1
   112    25    24    2
   113   110   109    2
   114   115   113   ar
   115    24    26   am
   116   134   132   ar
   117   131   132   ar
   118   131   130    1
   119   167   166   ar
   120   167   165   ar
   121    14    15    1
   122   130   127    1
   123   166   164   ar
   124   165   163   ar
   125   126   127    1
   126    15    16    1
   127   127   128    1
   128   164   161   ar
   129   163   161   ar
   130   163   162   ar
   131   161   159   ar
   132   128   129    2
   133   162   160   ar
   134    16    18   ar
   135    16    17   ar
   136   159   160   ar
   137   159   158    1
   138   158   155    1
   139   155   154    1
   140   155   156    1
   141   154   150   am
   142   156   157    2
   143   153   152    1
   144   143   142    2
   145   150   149    1
   146   150   151    2
   147     1     2    1
   148   149   152    1
   149   149   148    1
   150   142   148   am
   151   142   141    1
   152     3     2    1
   153     3     4    2
   154     7     6    1
   155     7     8    1
   156     5     2    1
   157     5     6    1
   158     8     9    1
   159   144   141    1
   160   144   145    1
   161   141   140    1
   162   145   147   ar
   163   145   146   ar
