@<TRIPOS>MOLECULE
tmp/1v6vA02.pdb
 88 87 0 0 0
SMALL
GASTEIGER

@<TRIPOS>ATOM
      1  N          6.5530   48.7310   80.3420 N.3   325  ASP325     -0.1225
      2  CA         6.9310   49.9150   81.1000 C.3   325  ASP325      0.1805
      3  C          7.9640   49.6560   82.2010 C.2   325  ASP325      0.2598
      4  O          7.9260   48.6250   82.8760 O.2   325  ASP325     -0.2718
      5  CB         5.6240   50.4870   81.6850 C.3   325  ASP325      0.1424
      6  CG         5.8380   51.6520   82.6290 C.2   325  ASP325      0.3668
      7  OD1        6.4370   51.4500   83.7050 O.co2 325  ASP325     -0.2456
      8  OD2        5.3810   52.7680   82.2920 O.co2 325  ASP325     -0.2456
      9  N          8.9030   50.5860   82.3600 N.am  326  VAL326     -0.1966
     10  CA         9.9070   50.4630   83.4110 C.3   326  VAL326      0.1712
     11  C          9.3490   51.2560   84.5910 C.2   326  VAL326      0.2458
     12  O          9.2210   52.4790   84.5210 O.2   326  VAL326     -0.2730
     13  CB        11.2700   51.0620   82.9980 C.3   326  VAL326      0.0289
     14  CG1       12.2940   50.8000   84.0930 C.3   326  VAL326      0.0023
     15  CG2       11.7410   50.4510   81.6820 C.3   326  VAL326      0.0023
     16  N          8.9970   50.5640   85.6850 N.am  327  PRO327     -0.2716
     17  CA         8.4380   51.1760   86.8950 C.3   327  PRO327      0.1536
     18  C          9.0640   52.5040   87.3170 C.2   327  PRO327      0.2599
     19  O         10.2580   52.5800   87.5990 O.2   327  PRO327     -0.2715
     20  CB         8.6220   50.0840   87.9410 C.3   327  PRO327      0.0310
     21  CG         8.3950   48.8410   87.1380 C.3   327  PRO327      0.0237
     22  CD         9.1990   49.1170   85.8810 C.3   327  PRO327      0.0939
     23  N          8.2330   53.5430   87.3460 N.am  328  ASN328     -0.1959
     24  CA         8.6380   54.8870   87.7490 C.3   328  ASN328      0.1819
     25  C          9.8290   55.4590   86.9900 C.2   328  ASN328      0.2621
     26  O         10.5500   56.3110   87.5110 O.2   328  ASN328     -0.2715
     27  CB         8.9330   54.9100   89.2510 C.3   328  ASN328      0.1195
     28  CG         7.7400   54.4820   90.0840 C.2   328  ASN328      0.2630
     29  OD1        6.6350   55.0040   89.9240 O.2   328  ASN328     -0.2716
     30  ND2        7.9580   53.5300   90.9840 N.am  328  ASN328     -0.0877
     31  N         10.0280   55.0000   85.7580 N.am  329  ALA329     -0.1977
     32  CA        11.1280   55.4750   84.9280 C.3   329  ALA329      0.1597
     33  C         12.4870   55.2720   85.5960 C.2   329  ALA329      0.2287
     34  O         13.4050   56.0700   85.4130 O.2   329  ALA329     -0.2864
     35  CB        10.9280   56.9480   84.5920 C.3   329  ALA329      0.0319
     36  N          7.1230   45.9570   83.6680 N.3   338  GLN338     -0.1245
     37  CA         5.7020   45.6910   83.8850 C.3   338  GLN338      0.1566
     38  C          4.8450   46.2170   82.7450 C.2   338  GLN338      0.2260
     39  O          5.3420   46.8040   81.7870 O.2   338  GLN338     -0.2867
     40  CB         5.2410   46.3950   85.1610 C.3   338  GLN338      0.0367
     41  CG         5.4780   47.9090   85.0850 C.3   338  GLN338      0.0905
     42  CD         4.8320   48.6910   86.2150 C.2   338  GLN338      0.2608
     43  OE1        4.5150   48.1430   87.2660 O.2   338  GLN338     -0.2717
     44  NE2        4.6540   49.9890   86.0040 N.am  338  GLN338     -0.0878
     45  N          1.6480   48.7420   81.7170 N.3   340  TYR340     -0.1227
     46  CA         1.0700   49.9730   82.2410 C.3   340  TYR340      0.1736
     47  C          0.4160   50.7700   81.1320 C.2   340  TYR340      0.2595
     48  O          0.8520   50.7130   79.9840 O.2   340  TYR340     -0.2718
     49  CB         2.1260   50.8450   82.9230 C.3   340  TYR340      0.0548
     50  CG         1.5060   51.7510   83.9580 C.ar  340  TYR340     -0.0200
     51  CD1        1.2590   51.2870   85.2480 C.ar  340  TYR340     -0.0009
     52  CD2        1.0720   53.0340   83.6240 C.ar  340  TYR340     -0.0009
     53  CE1        0.5890   52.0700   86.1820 C.ar  340  TYR340      0.0417
     54  CE2        0.3960   53.8300   84.5540 C.ar  340  TYR340      0.0417
     55  CZ         0.1580   53.3360   85.8290 C.ar  340  TYR340      0.1957
     56  OH        -0.5230   54.0970   86.7510 O.3   340  TYR340     -0.2866
     57  N         -0.6330   51.5100   81.4790 N.am  341  ASP341     -0.1960
     58  CA        -1.3380   52.3290   80.5040 C.3   341  ASP341      0.1840
     59  C         -0.3150   53.0570   79.6460 C.2   341  ASP341      0.2622
     60  O          0.5970   53.7040   80.1590 O.2   341  ASP341     -0.2715
     61  CB        -2.2480   53.3450   81.2000 C.3   341  ASP341      0.1450
     62  CG        -3.2850   52.6880   82.0900 C.2   341  ASP341      0.3671
     63  OD1       -3.8620   51.6630   81.6740 O.co2 341  ASP341     -0.2456
     64  OD2       -3.5310   53.2000   83.2030 O.co2 341  ASP341     -0.2456
     65  N         -0.4720   52.9400   78.3360 N.am  342  CYS342     -0.1954
     66  CA         0.4460   53.5650   77.4000 C.3   342  CYS342      0.1843
     67  C          0.3990   55.0860   77.4360 C.2   342  CYS342      0.2625
     68  O         -0.6740   55.6840   77.5290 O.2   342  CYS342     -0.2714
     69  CB         0.1410   53.0880   75.9850 C.3   342  CYS342      0.0997
     70  SG         0.1800   51.2820   75.7540 S.3   342  CYS342     -0.0797
     71  N          1.5750   55.7020   77.3640 N.am  343  HIS343     -0.1973
     72  CA         1.6890   57.1550   77.3580 C.3   343  HIS343      0.1656
     73  C          3.0760   57.5590   76.8720 C.2   343  HIS343      0.2291
     74  O          4.0170   56.7660   76.9180 O.2   343  HIS343     -0.2864
     75  CB         1.4260   57.7350   78.7550 C.3   343  HIS343      0.0771
     76  CG         2.5130   57.4610   79.7480 C.ar  343  HIS343      0.0820
     77  ND1        2.8460   56.1890   80.1610 N.ar  343  HIS343     -0.2267
     78  CD2        3.3360   58.3010   80.4200 C.ar  343  HIS343      0.1154
     79  CE1        3.8270   56.2560   81.0430 C.ar  343  HIS343      0.1986
     80  NE2        4.1430   57.5260   81.2180 N.ar  343  HIS343     -0.2212
     81  N         10.3160   55.8500   79.5300 N.3   347  ASN347     -0.1240
     82  CA        10.3110   54.5440   80.1740 C.3   347  ASN347      0.1653
     83  C          9.3840   53.5580   79.4640 C.2   347  ASN347      0.2266
     84  O          9.1610   52.4490   79.9440 O.2   347  ASN347     -0.2867
     85  CB         9.9430   54.6690   81.6580 C.3   347  ASN347      0.1155
     86  CG         8.5440   55.1980   81.8750 C.2   347  ASN347      0.2627
     87  OD1        8.1410   56.1900   81.2680 O.2   347  ASN347     -0.2716
     88  ND2        7.7960   54.5430   82.7570 N.am  347  ASN347     -0.0877
@<TRIPOS>BOND
     1    70    69    1
     2    69    66    1
     3    73    74    2
     4    73    72    1
     5    72    71    1
     6    72    75    1
     7    71    67   am
     8    66    67    1
     9    66    65    1
    10    67    68    2
    11    65    59   am
    12    75    76    1
    13    83    84    2
    14    83    82    1
    15    81    82    1
    16    59    60    2
    17    59    58    1
    18    76    77   ar
    19    76    78   ar
    20    48    47    2
    21    77    79   ar
    22    82    85    1
    23     1     2    1
    24    78    80   ar
    25    58    61    1
    26    58    57    1
    27    79    80   ar
    28     2     5    1
    29     2     3    1
    30    47    57   am
    31    47    46    1
    32    61    62    1
    33    87    86    2
    34    85    86    1
    35    63    62   ar
    36    15    13    1
    37     5     6    1
    38    45    46    1
    39    39    38    2
    40    86    88   am
    41    62    64   ar
    42     3     9   am
    43     3     4    2
    44    46    49    1
    45     8     6   ar
    46     9    10    1
    47     6     7   ar
    48    38    37    1
    49    49    50    1
    50    13    10    1
    51    13    14    1
    52    10    11    1
    53    52    50   ar
    54    52    54   ar
    55    36    37    1
    56    37    40    1
    57    50    51   ar
    58    12    11    2
    59    54    55   ar
    60    11    16   am
    61    35    32    1
    62    32    33    1
    63    32    31    1
    64    41    40    1
    65    41    42    1
    66    51    53   ar
    67    34    33    2
    68    16    22    1
    69    16    17    1
    70    31    25   am
    71    55    53   ar
    72    55    56    1
    73    22    21    1
    74    44    42   am
    75    42    43    2
    76    17    18    1
    77    17    20    1
    78    25    26    2
    79    25    24    1
    80    21    20    1
    81    18    23   am
    82    18    19    2
    83    23    24    1
    84    24    27    1
    85    27    28    1
    86    29    28    2
    87    28    30   am
