@<TRIPOS>MOLECULE
tmp/1v6wA01.pdb
 79 75 0 0 0
SMALL
GASTEIGER

@<TRIPOS>ATOM
      1  N          6.4440   36.4490   78.1660 N.3   408  ASP408     -0.1239
      2  CA         5.1260   36.0440   78.6260 C.3   408  ASP408      0.1674
      3  C          4.6020   36.8710   79.7940 C.2   408  ASP408      0.2266
      4  O          5.3010   37.0710   80.7880 O.2   408  ASP408     -0.2867
      5  CB         5.2180   34.5550   78.9970 C.3   408  ASP408      0.1410
      6  CG         3.9510   34.0100   79.6160 C.2   408  ASP408      0.3668
      7  OD1        3.5800   34.4590   80.7170 O.co2 408  ASP408     -0.2456
      8  OD2        3.3360   33.1160   79.0000 O.co2 408  ASP408     -0.2456
      9  N          2.9760   37.1430   82.9320 N.3   410  VAL410     -0.1231
     10  CA         2.6880   36.2230   84.0260 C.3   410  VAL410      0.1692
     11  C          1.2100   35.8950   84.2380 C.2   410  VAL410      0.2593
     12  O          0.3760   36.7890   84.3860 O.2   410  VAL410     -0.2718
     13  CB         3.2670   36.7580   85.3550 C.3   410  VAL410      0.0266
     14  CG1        2.9840   35.7700   86.4880 C.3   410  VAL410      0.0020
     15  CG2        4.7670   36.9840   85.2080 C.3   410  VAL410      0.0020
     16  N          0.9080   34.5990   84.2520 N.am  411  GLY411     -0.1942
     17  CA        -0.4530   34.1320   84.4620 C.3   411  GLY411      0.2014
     18  C         -1.4940   34.7420   83.5460 C.2   411  GLY411      0.2639
     19  O         -2.6370   34.9620   83.9560 O.2   411  GLY411     -0.2714
     20  N         -1.1070   35.0080   82.3030 N.am  412  GLY412     -0.1954
     21  CA        -2.0340   35.6010   81.3590 C.3   412  GLY412      0.1869
     22  C         -2.5550   36.9410   81.8450 C.2   412  GLY412      0.2309
     23  O         -3.5460   37.4500   81.3270 O.2   412  GLY412     -0.2863
     24  N          7.7590   37.5270   82.1100 N.3   421  GLN421     -0.1245
     25  CA         8.6390   36.3890   82.3380 C.3   421  GLN421      0.1566
     26  C          8.8990   35.6710   81.0210 C.2   421  GLN421      0.2260
     27  O          8.3570   36.0400   79.9810 O.2   421  GLN421     -0.2867
     28  CB         7.9620   35.3980   83.2910 C.3   421  GLN421      0.0367
     29  CG         6.8700   34.5700   82.5990 C.3   421  GLN421      0.0905
     30  CD         6.0960   33.6690   83.5440 C.2   421  GLN421      0.2608
     31  OE1        6.6300   33.2010   84.5480 O.2   421  GLN421     -0.2717
     32  NE2        4.8330   33.4010   83.2100 N.am  421  GLN421     -0.0878
     33  N          8.6790   31.9690   79.0450 N.3   423  TYR423     -0.1227
     34  CA         7.8840   30.7500   79.1460 C.3   423  TYR423      0.1736
     35  C          7.7420   30.0850   77.7870 C.2   423  TYR423      0.2596
     36  O          7.7330   30.7620   76.7590 O.2   423  TYR423     -0.2718
     37  CB         6.4990   31.0610   79.7230 C.3   423  TYR423      0.0548
     38  CG         5.8850   29.8780   80.4420 C.ar  423  TYR423     -0.0200
     39  CD1        5.3840   28.7870   79.7310 C.ar  423  TYR423     -0.0009
     40  CD2        5.8660   29.8210   81.8360 C.ar  423  TYR423     -0.0009
     41  CE1        4.8840   27.6670   80.3910 C.ar  423  TYR423      0.0417
     42  CE2        5.3690   28.7040   82.5060 C.ar  423  TYR423      0.0417
     43  CZ         4.8820   27.6320   81.7770 C.ar  423  TYR423      0.1957
     44  OH         4.4050   26.5200   82.4290 O.3   423  TYR423     -0.2866
     45  N          7.6500   28.7580   77.7840 N.am  424  SER424     -0.1938
     46  CA         7.4930   28.0120   76.5420 C.3   424  SER424      0.2055
     47  C          6.4970   28.7580   75.6650 C.2   424  SER424      0.2643
     48  O          5.4270   29.1520   76.1320 O.2   424  SER424     -0.2714
     49  CB         6.9710   26.6030   76.8280 C.3   424  SER424      0.2130
     50  OG         7.8440   25.9040   77.6990 O.3   424  SER424     -0.2179
     51  N          6.8530   28.9610   74.4010 N.am  425  CYS425     -0.1953
     52  CA         5.9800   29.6770   73.4810 C.3   425  CYS425      0.1843
     53  C          4.6540   28.9420   73.3210 C.2   425  CYS425      0.2626
     54  O          4.6310   27.7280   73.1290 O.2   425  CYS425     -0.2714
     55  CB         6.6760   29.8460   72.1370 C.3   425  CYS425      0.0997
     56  SG         8.2100   30.8330   72.2330 S.3   425  CYS425     -0.0797
     57  N          3.5550   29.6880   73.3830 N.am  426  SER426     -0.1950
     58  CA         2.2210   29.0960   73.3070 C.3   426  SER426      0.1924
     59  C          1.2720   29.6780   72.2680 C.2   426  SER426      0.2314
     60  O          0.1600   29.1770   72.1060 O.2   426  SER426     -0.2863
     61  CB         1.5450   29.2340   74.6610 C.3   426  SER426      0.2116
     62  OG         1.3240   30.6070   74.9350 O.3   426  SER426     -0.2180
     63  N         -1.1400   36.4270   75.5110 N.3   430  ASN430     -0.1225
     64  CA        -0.2790   36.9860   76.5500 C.3   430  ASN430      0.1785
     65  C          1.1910   36.8230   76.1490 C.2   430  ASN430      0.2597
     66  O          2.1060   37.0900   76.9340 O.2   430  ASN430     -0.2718
     67  CB        -0.5510   36.2970   77.8970 C.3   430  ASN430      0.1169
     68  CG        -0.1250   34.8370   77.9170 C.2   430  ASN430      0.2627
     69  OD1       -0.4400   34.0680   77.0080 O.2   430  ASN430     -0.2716
     70  ND2        0.5860   34.4450   78.9730 N.am  430  ASN430     -0.0877
     71  N          1.4020   36.3810   74.9140 N.am  431  GLN431     -0.1979
     72  CA         2.7400   36.1850   74.3720 C.3   431  GLN431      0.1601
     73  C          2.8380   36.8260   72.9950 C.2   431  GLN431      0.2287
     74  O          3.8210   36.6400   72.2750 O.2   431  GLN431     -0.2864
     75  CB         3.0630   34.6950   74.2630 C.3   431  GLN431      0.0394
     76  CG         3.5840   34.0740   75.5450 C.3   431  GLN431      0.0908
     77  CD         3.9760   32.6220   75.3610 C.2   431  GLN431      0.2608
     78  OE1        4.3530   32.2030   74.2650 O.2   431  GLN431     -0.2717
     79  NE2        3.9100   31.8480   76.4370 N.am  431  GLN431     -0.0878
@<TRIPOS>BOND
     1    60    59    2
     2    55    56    1
     3    55    52    1
     4    59    58    1
     5    74    73    2
     6    73    72    1
     7    54    53    2
     8    58    57    1
     9    58    61    1
    10    53    57   am
    11    53    52    1
    12    52    51    1
    13    75    72    1
    14    75    76    1
    15    78    77    2
    16    72    71    1
    17    51    47   am
    18    61    62    1
    19    71    65   am
    20    77    76    1
    21    77    79   am
    22    63    64    1
    23    47    48    2
    24    47    46    1
    25    65    64    1
    26    65    66    2
    27    46    49    1
    28    46    45    1
    29    64    67    1
    30    36    35    2
    31    49    50    1
    32    69    68    2
    33    45    35   am
    34    35    34    1
    35    67    68    1
    36    68    70   am
    37     1     2    1
    38     2     5    1
    39     2     3    1
    40     5     6    1
    41     8     6   ar
    42    33    34    1
    43    34    37    1
    44     6     7   ar
    45    37    38    1
    46    39    41   ar
    47    39    38   ar
    48     3     4    2
    49    27    26    2
    50    41    43   ar
    51    38    40   ar
    52    26    25    1
    53    23    22    2
    54    21    22    1
    55    21    20    1
    56    43    44    1
    57    43    42   ar
    58    40    42   ar
    59    24    25    1
    60    20    18   am
    61    25    28    1
    62    29    28    1
    63    29    30    1
    64     9    10    1
    65    32    30   am
    66    30    31    2
    67    18    19    2
    68    18    17    1
    69    10    11    1
    70    10    13    1
    71    11    16   am
    72    11    12    2
    73    16    17    1
    74    15    13    1
    75    13    14    1
