@<TRIPOS>MOLECULE
tmp/1v6xA02.pdb
 85 81 0 0 0
SMALL
GASTEIGER

@<TRIPOS>ATOM
      1  N          5.3030   48.0860   78.2160 N.3   325  ASP325     -0.1239
      2  CA         5.6210   49.2910   78.9830 C.3   325  ASP325      0.1674
      3  C          6.6160   49.0810   80.1240 C.2   325  ASP325      0.2266
      4  O          6.5480   48.0790   80.8370 O.2   325  ASP325     -0.2867
      5  CB         4.2830   49.8280   79.5240 C.3   325  ASP325      0.1410
      6  CG         4.4280   51.0500   80.4120 C.2   325  ASP325      0.3668
      7  OD1        5.0080   50.9330   81.5150 O.co2 325  ASP325     -0.2456
      8  OD2        3.9390   52.1270   80.0060 O.co2 325  ASP325     -0.2456
      9  N          7.5060   50.0990   83.6030 N.3   327  PRO327     -0.2102
     10  CA         6.8870   50.7380   84.7690 C.3   327  PRO327      0.1504
     11  C          7.4610   52.0900   85.1640 C.2   327  PRO327      0.2575
     12  O          8.6560   52.2160   85.4440 O.2   327  PRO327     -0.2718
     13  CB         7.0720   49.6980   85.8700 C.3   327  PRO327      0.0282
     14  CG         6.9620   48.4060   85.1060 C.3   327  PRO327      0.0208
     15  CD         7.8240   48.6890   83.8930 C.3   327  PRO327      0.0893
     16  N          6.5910   53.0960   85.1730 N.am  328  ASN328     -0.1975
     17  CA         6.9530   54.4500   85.5700 C.3   328  ASN328      0.1688
     18  C          8.1570   55.0350   84.8560 C.2   328  ASN328      0.2292
     19  O          8.8580   55.8800   85.4130 O.2   328  ASN328     -0.2864
     20  CB         7.2050   54.4940   87.0750 C.3   328  ASN328      0.1181
     21  CG         5.9780   54.1250   87.8780 C.2   328  ASN328      0.2629
     22  OD1        4.9000   54.6910   87.6790 O.2   328  ASN328     -0.2716
     23  ND2        6.1320   53.1780   88.7990 N.am  328  ASN328     -0.0877
     24  N          5.8400   45.4360   81.6870 N.3   338  GLN338     -0.1245
     25  CA         4.4210   45.1310   81.8320 C.3   338  GLN338      0.1566
     26  C          3.5990   45.5820   80.6370 C.2   338  GLN338      0.2260
     27  O          4.1080   46.1880   79.6940 O.2   338  GLN338     -0.2867
     28  CB         3.8720   45.8770   83.0490 C.3   338  GLN338      0.0367
     29  CG         4.0340   47.4010   82.8800 C.3   338  GLN338      0.0905
     30  CD         3.3530   48.2200   83.9610 C.2   338  GLN338      0.2608
     31  OE1        2.8680   47.6820   84.9510 O.2   338  GLN338     -0.2717
     32  NE2        3.3220   49.5360   83.7740 N.am  338  GLN338     -0.0878
     33  N          0.3940   47.9290   79.3840 N.3   340  TYR340     -0.1227
     34  CA        -0.2530   49.1500   79.8330 C.3   340  TYR340      0.1736
     35  C         -0.9040   49.8740   78.6680 C.2   340  TYR340      0.2595
     36  O         -0.4420   49.7760   77.5290 O.2   340  TYR340     -0.2718
     37  CB         0.7540   50.0830   80.5130 C.3   340  TYR340      0.0548
     38  CG         0.1090   50.9730   81.5530 C.ar  340  TYR340     -0.0200
     39  CD1       -0.1080   50.5130   82.8520 C.ar  340  TYR340     -0.0009
     40  CD2       -0.3480   52.2480   81.2220 C.ar  340  TYR340     -0.0009
     41  CE1       -0.7690   51.2970   83.7950 C.ar  340  TYR340      0.0417
     42  CE2       -1.0120   53.0410   82.1580 C.ar  340  TYR340      0.0417
     43  CZ        -1.2190   52.5580   83.4390 C.ar  340  TYR340      0.1957
     44  OH        -1.8900   53.3320   84.3610 O.3   340  TYR340     -0.2866
     45  N         -1.9830   50.5960   78.9580 N.am  341  ASP341     -0.1974
     46  CA        -2.6840   51.3510   77.9320 C.3   341  ASP341      0.1709
     47  C         -1.6440   52.0760   77.0800 C.2   341  ASP341      0.2293
     48  O         -0.7810   52.7820   77.5980 O.2   341  ASP341     -0.2864
     49  CB        -3.6340   52.3650   78.5740 C.3   341  ASP341      0.1436
     50  CG        -4.6660   51.7110   79.4730 C.2   341  ASP341      0.3671
     51  OD1       -5.2180   50.6560   79.0880 O.co2 341  ASP341     -0.2456
     52  OD2       -4.9360   52.2590   80.5620 O.co2 341  ASP341     -0.2456
     53  N          0.3220   54.6750   74.8390 N.3   343  HIS343     -0.1226
     54  CA         0.4210   56.1290   74.7780 C.3   343  HIS343      0.1752
     55  C          1.8210   56.5570   74.3630 C.2   343  HIS343      0.2597
     56  O          2.7850   55.8060   74.5190 O.2   343  HIS343     -0.2718
     57  CB         0.0500   56.7730   76.1210 C.3   343  HIS343      0.0759
     58  CG         0.9480   56.3940   77.2570 C.ar  343  HIS343      0.0818
     59  ND1        0.9280   55.1450   77.8400 N.ar  343  HIS343     -0.2268
     60  CD2        1.8710   57.1130   77.9400 C.ar  343  HIS343      0.1154
     61  CE1        1.7960   55.1120   78.8350 C.ar  343  HIS343      0.1986
     62  NE2        2.3820   56.2930   78.9160 N.ar  343  HIS343     -0.2212
     63  N          1.9250   57.7700   73.8310 N.am  344  SER344     -0.1938
     64  CA         3.2010   58.3050   73.3710 C.3   344  SER344      0.2055
     65  C          4.1240   58.7070   74.5110 C.2   344  SER344      0.2642
     66  O          4.0840   59.8420   74.9920 O.2   344  SER344     -0.2714
     67  CB         2.9720   59.5170   72.4670 C.3   344  SER344      0.2130
     68  OG         2.4620   60.6120   73.2130 O.3   344  SER344     -0.2179
     69  N          4.9570   57.7670   74.9360 N.am  345  ALA345     -0.1977
     70  CA         5.9190   58.0020   76.0030 C.3   345  ALA345      0.1597
     71  C          7.1280   57.1440   75.6730 C.2   345  ALA345      0.2287
     72  O          6.9870   56.0820   75.0740 O.2   345  ALA345     -0.2864
     73  CB         5.3310   57.5970   77.3470 C.3   345  ALA345      0.0319
     74  N          8.8800   55.2940   77.5280 N.3   347  ASN347     -0.1240
     75  CA         8.8550   53.9920   78.1870 C.3   347  ASN347      0.1653
     76  C          7.9860   52.9750   77.4400 C.2   347  ASN347      0.2266
     77  O          7.6920   51.8940   77.9490 O.2   347  ASN347     -0.2867
     78  CB         8.4020   54.1400   79.6500 C.3   347  ASN347      0.1155
     79  CG         6.9660   54.6290   79.7830 C.2   347  ASN347      0.2627
     80  OD1        6.5450   55.5590   79.0960 O.2   347  ASN347     -0.2716
     81  ND2        6.2140   54.0120   80.6870 N.am  347  ASN347     -0.0877
     82  N         -0.6620   46.5680   84.2000 N.3   417  GLY417     -0.1225
     83  CA         0.1200   45.9580   85.2560 C.3   417  GLY417      0.1811
     84  C          0.4760   44.4980   85.0390 C.2   417  GLY417      0.2280
     85  O          1.2710   43.9490   85.7980 O.2   417  GLY417     -0.2866
@<TRIPOS>BOND
     1    67    68    1
     2    67    64    1
     3    64    63    1
     4    64    65    1
     5    63    55   am
     6    55    56    2
     7    55    54    1
     8    65    69   am
     9    65    66    2
    10    54    53    1
    11    54    57    1
    12    69    70    1
    13    72    71    2
    14    71    70    1
    15    70    73    1
    16    57    58    1
    17    47    48    2
    18    47    46    1
    19    58    59   ar
    20    58    60   ar
    21    76    77    2
    22    76    75    1
    23    74    75    1
    24    36    35    2
    25    59    61   ar
    26    46    49    1
    27    46    45    1
    28    60    62   ar
    29    75    78    1
    30     1     2    1
    31    49    50    1
    32    35    45   am
    33    35    34    1
    34    61    62   ar
    35     2     5    1
    36     2     3    1
    37    51    50   ar
    38    80    79    2
    39    33    34    1
    40    50    52   ar
    41     5     6    1
    42    78    79    1
    43    27    26    2
    44    79    81   am
    45    34    37    1
    46     8     6   ar
    47     3     4    2
    48     6     7   ar
    49    37    38    1
    50    26    25    1
    51    40    38   ar
    52    40    42   ar
    53    38    39   ar
    54    24    25    1
    55    25    28    1
    56    42    43   ar
    57    39    41   ar
    58    29    28    1
    59    29    30    1
    60    43    41   ar
    61    43    44    1
    62     9    15    1
    63     9    10    1
    64    32    30   am
    65    15    14    1
    66    30    31    2
    67    82    83    1
    68    10    11    1
    69    10    13    1
    70    18    19    2
    71    18    17    1
    72    84    83    1
    73    84    85    2
    74    14    13    1
    75    11    16   am
    76    11    12    2
    77    16    17    1
    78    17    20    1
    79    20    21    1
    80    22    21    2
    81    21    23   am
