@<TRIPOS>MOLECULE
tmp/1v6xA00.pdb
 152 148 0 0 0
SMALL
GASTEIGER

@<TRIPOS>ATOM
      1  N         32.4600   22.4830   51.1470 N.3    44  GLU44      -0.1231
      2  CA        33.3370   23.5660   51.5800 C.3    44  GLU44       0.1699
      3  C         34.7760   23.4390   51.0580 C.2    44  GLU44       0.2592
      4  O         35.4270   24.4460   50.7740 O.2    44  GLU44      -0.2718
      5  CB        33.3330   23.6780   53.1130 C.3    44  GLU44       0.0402
      6  CG        34.1370   24.8700   53.6490 C.3    44  GLU44       0.1161
      7  CD        33.8940   25.1420   55.1340 C.2    44  GLU44       0.3649
      8  OE1       33.4900   24.2050   55.8560 O.co2  44  GLU44      -0.2457
      9  OE2       34.1230   26.2900   55.5820 O.co2  44  GLU44      -0.2457
     10  N         35.2620   22.2110   50.9050 N.am   45  ASN45      -0.1974
     11  CA        36.6340   21.9890   50.4290 C.3    45  ASN45       0.1688
     12  C         36.8240   20.7030   49.6270 C.2    45  ASN45       0.2292
     13  O         37.7650   20.5910   48.8400 O.2    45  ASN45      -0.2864
     14  CB        37.6050   21.9260   51.6160 C.3    45  ASN45       0.1181
     15  CG        37.7950   23.2610   52.3000 C.2    45  ASN45       0.2629
     16  OD1       38.3410   24.1970   51.7180 O.2    45  ASN45      -0.2716
     17  ND2       37.3500   23.3550   53.5490 N.am   45  ASN45      -0.0877
     18  N         37.5180   20.7960   45.6660 N.3    48  LYS48      -0.1245
     19  CA        38.5110   21.7310   45.1570 C.3    48  LYS48       0.1561
     20  C         39.6420   20.9790   44.4530 C.2    48  LYS48       0.2260
     21  O         39.7720   19.7610   44.5810 O.2    48  LYS48      -0.2867
     22  CB        39.0460   22.6030   46.3010 C.3    48  LYS48       0.0271
     23  CG        38.0020   23.6050   46.8180 C.3    48  LYS48       0.0035
     24  CD        38.4700   24.3720   48.0530 C.3    48  LYS48       0.0206
     25  CE        37.4730   25.4660   48.4200 C.3    48  LYS48       0.1093
     26  NZ        37.7410   26.0740   49.7510 N.3    48  LYS48      -0.1314
     27  N         43.0880   20.6720   44.7780 N.3    50  ASP50      -0.1239
     28  CA        43.9970   19.8510   45.5670 C.3    50  ASP50       0.1674
     29  C         43.3320   18.6040   46.1480 C.2    50  ASP50       0.2266
     30  O         43.9780   17.5700   46.3080 O.2    50  ASP50      -0.2867
     31  CB        44.6170   20.6900   46.6950 C.3    50  ASP50       0.1410
     32  CG        43.5760   21.2620   47.6500 C.2    50  ASP50       0.3668
     33  OD1       42.4190   21.4720   47.2320 O.co2  50  ASP50      -0.2456
     34  OD2       43.9210   21.5230   48.8180 O.co2  50  ASP50      -0.2456
     35  N         32.2380   23.1610   43.5940 N.3    81  HIS81      -0.1241
     36  CA        33.1860   24.2350   43.8950 C.3    81  HIS81       0.1621
     37  C         34.5720   23.6530   44.2190 C.2    81  HIS81       0.2264
     38  O         34.7010   22.9090   45.1830 O.2    81  HIS81      -0.2867
     39  CB        32.6410   25.0050   45.1050 C.3    81  HIS81       0.0745
     40  CG        33.4720   26.1770   45.5270 C.ar   81  HIS81       0.0817
     41  ND1       33.4120   27.4000   44.8950 N.ar   81  HIS81      -0.2268
     42  CD2       34.3530   26.3230   46.5460 C.ar   81  HIS81       0.1154
     43  CE1       34.2170   28.2500   45.5080 C.ar   81  HIS81       0.1986
     44  NE2       34.8010   27.6220   46.5120 N.ar   81  HIS81      -0.2212
     45  N         41.1490   27.7060   39.7950 N.3    85  TRP85      -0.1241
     46  CA        41.3720   28.7450   40.7890 C.3    85  TRP85       0.1605
     47  C         42.8590   28.8440   41.1280 C.2    85  TRP85       0.2264
     48  O         43.5880   27.8540   41.0400 O.2    85  TRP85      -0.2867
     49  CB        40.5360   28.3640   42.0140 C.3    85  TRP85       0.0550
     50  CG        40.4830   29.3170   43.1460 C.ar   85  TRP85       0.0003
     51  CD1       40.6490   30.6690   43.1030 C.ar   85  TRP85       0.0946
     52  CD2       40.1410   28.9950   44.5010 C.ar   85  TRP85       0.0152
     53  NE1       40.4300   31.2100   44.3480 N.ar   85  TRP85      -0.2442
     54  CE2       40.1150   30.2050   45.2240 C.ar   85  TRP85       0.0810
     55  CE3       39.8490   27.7970   45.1720 C.ar   85  TRP85       0.0012
     56  CZ2       39.8070   30.2570   46.5920 C.ar   85  TRP85       0.0191
     57  CZ3       39.5420   27.8450   46.5330 C.ar   85  TRP85       0.0001
     58  CH2       39.5230   29.0690   47.2270 C.ar   85  TRP85       0.0015
     59  N         44.4350   27.0780   46.7090 N.3    88  GLN88      -0.1245
     60  CA        44.2620   25.6790   47.0750 C.3    88  GLN88       0.1566
     61  C         44.5130   24.6910   45.9350 C.2    88  GLN88       0.2260
     62  O         43.7680   23.7220   45.7640 O.2    88  GLN88      -0.2867
     63  CB        42.8690   25.4600   47.6850 C.3    88  GLN88       0.0367
     64  CG        42.7910   25.8180   49.1710 C.3    88  GLN88       0.0905
     65  CD        41.3970   25.6390   49.7570 C.2    88  GLN88       0.2608
     66  OE1       40.5040   26.4580   49.5320 O.2    88  GLN88      -0.2717
     67  NE2       41.2080   24.5590   50.5130 N.am   88  GLN88      -0.0878
     68  N         37.1500   30.5980   39.5960 N.3   127  ASN127     -0.1225
     69  CA        36.9850   31.3370   40.8420 C.3   127  ASN127      0.1785
     70  C         38.0490   32.4230   41.0600 C.2   127  ASN127      0.2597
     71  O         39.2360   32.2030   40.8120 O.2   127  ASN127     -0.2718
     72  CB        37.0100   30.3380   42.0120 C.3   127  ASN127      0.1169
     73  CG        36.4570   30.9190   43.3030 C.2   127  ASN127      0.2627
     74  OD1       35.3890   31.5260   43.3110 O.2   127  ASN127     -0.2716
     75  ND2       37.1770   30.7170   44.4090 N.am  127  ASN127     -0.0877
     76  N         37.5940   33.5920   41.5090 N.am  128  GLU128     -0.1979
     77  CA        38.4400   34.7480   41.8300 C.3   128  GLU128      0.1602
     78  C         39.5590   35.1080   40.8430 C.2   128  GLU128      0.2287
     79  O         40.7230   35.2430   41.2350 O.2   128  GLU128     -0.2864
     80  CB        39.0470   34.5470   43.2210 C.3   128  GLU128      0.0415
     81  CG        38.0840   33.9120   44.2070 C.3   128  GLU128      0.1163
     82  CD        38.6480   33.8200   45.6070 C.2   128  GLU128      0.3649
     83  OE1       39.8280   33.4300   45.7560 O.co2 128  GLU128     -0.2457
     84  OE2       37.9040   34.1260   46.5650 O.co2 128  GLU128     -0.2457
     85  N         34.5050   37.3680   44.7280 N.3   172  TYR172     -0.1241
     86  CA        34.0990   38.1870   45.8700 C.3   172  TYR172      0.1605
     87  C         34.4250   39.6400   45.5340 C.2   172  TYR172      0.2264
     88  O         35.1620   39.9100   44.5880 O.2   172  TYR172     -0.2867
     89  CB        34.8500   37.7840   47.1400 C.3   172  TYR172      0.0534
     90  CG        36.3490   37.9890   47.0550 C.ar  172  TYR172     -0.0201
     91  CD1       37.1710   37.0370   46.4510 C.ar  172  TYR172     -0.0009
     92  CD2       36.9400   39.1430   47.5610 C.ar  172  TYR172     -0.0009
     93  CE1       38.5460   37.2300   46.3540 C.ar  172  TYR172      0.0417
     94  CE2       38.3130   39.3480   47.4650 C.ar  172  TYR172      0.0417
     95  CZ        39.1090   38.3890   46.8600 C.ar  172  TYR172      0.1957
     96  OH        40.4630   38.6050   46.7510 O.3   172  TYR172     -0.2866
     97  N         29.9900   35.7660   45.7510 N.3   205  GLN205     -0.1245
     98  CA        30.3410   35.2060   47.0490 C.3   205  GLN205      0.1566
     99  C         29.6070   35.8950   48.1810 C.2   205  GLN205      0.2260
    100  O         29.1720   35.2480   49.1330 O.2   205  GLN205     -0.2867
    101  CB        31.8560   35.2770   47.2680 C.3   205  GLN205      0.0367
    102  CG        32.6360   34.2660   46.4290 C.3   205  GLN205      0.0905
    103  CD        34.1330   34.2840   46.7070 C.2   205  GLN205      0.2608
    104  OE1       34.5680   34.6850   47.7840 O.2   205  GLN205     -0.2717
    105  NE2       34.9260   33.8300   45.7370 N.am  205  GLN205     -0.0878
    106  N         30.6390   38.0860   50.6520 N.3   207  HIS207     -0.1241
    107  CA        31.2570   38.0550   51.9710 C.3   207  HIS207      0.1621
    108  C         31.2680   39.5150   52.4090 C.2   207  HIS207      0.2264
    109  O         32.0990   40.2910   51.9550 O.2   207  HIS207     -0.2867
    110  CB        32.6850   37.5140   51.8900 C.3   207  HIS207      0.0745
    111  CG        32.7540   36.0320   51.6960 C.ar  207  HIS207      0.0817
    112  ND1       32.2620   35.1390   52.6220 N.ar  207  HIS207     -0.2268
    113  CD2       33.2460   35.2860   50.6770 C.ar  207  HIS207      0.1154
    114  CE1       32.4450   33.9060   52.1830 C.ar  207  HIS207      0.1986
    115  NE2       33.0400   33.9670   51.0050 N.ar  207  HIS207     -0.2212
    116  N         28.3460   32.4960   48.7200 N.3   236  GLU236     -0.1245
    117  CA        29.0430   32.2950   49.9860 C.3   236  GLU236      0.1567
    118  C         28.6990   33.3590   51.0200 C.2   236  GLU236      0.2260
    119  O         29.5700   33.8620   51.7240 O.2   236  GLU236     -0.2867
    120  CB        30.5570   32.2820   49.7150 C.3   236  GLU236      0.0388
    121  CG        30.9710   31.2150   48.6970 C.3   236  GLU236      0.1160
    122  CD        32.4530   31.2570   48.3380 C.2   236  GLU236      0.3649
    123  OE1       33.2560   31.7420   49.1580 O.co2 236  GLU236     -0.2457
    124  OE2       32.8120   30.7880   47.2390 O.co2 236  GLU236     -0.2457
    125  N         27.7330   30.6560   53.7220 N.3   266  TRP266     -0.1241
    126  CA        28.9670   29.8910   53.8420 C.3   266  TRP266      0.1605
    127  C         29.1810   29.2290   55.2090 C.2   266  TRP266      0.2264
    128  O         30.1140   29.5640   55.9490 O.2   266  TRP266     -0.2867
    129  CB        30.1580   30.7880   53.4810 C.3   266  TRP266      0.0550
    130  CG        31.3440   30.0210   53.0200 C.ar  266  TRP266      0.0003
    131  CD1       32.5840   29.9880   53.6020 C.ar  266  TRP266      0.0946
    132  CD2       31.4090   29.1570   51.8840 C.ar  266  TRP266      0.0152
    133  NE1       33.4140   29.1570   52.8930 N.ar  266  TRP266     -0.2442
    134  CE2       32.7190   28.6320   51.8340 C.ar  266  TRP266      0.0810
    135  CE3       30.4870   28.7720   50.9030 C.ar  266  TRP266      0.0012
    136  CZ2       33.1320   27.7420   50.8390 C.ar  266  TRP266      0.0191
    137  CZ3       30.8940   27.8880   49.9140 C.ar  266  TRP266      0.0001
    138  CH2       32.2100   27.3810   49.8910 C.ar  266  TRP266      0.0015
    139  N         34.4780   30.0070   58.5950 N.3   274  TRP274     -0.1241
    140  CA        35.8850   30.2780   58.3300 C.3   274  TRP274      0.1605
    141  C         36.1970   31.6340   58.9600 C.2   274  TRP274      0.2264
    142  O         37.3600   32.0300   59.0720 O.2   274  TRP274     -0.2867
    143  CB        36.1520   30.3180   56.8220 C.3   274  TRP274      0.0550
    144  CG        35.4830   31.4570   56.0980 C.ar  274  TRP274      0.0003
    145  CD1       34.1840   31.8610   56.2200 C.ar  274  TRP274      0.0946
    146  CD2       36.0850   32.3320   55.1290 C.ar  274  TRP274      0.0152
    147  NE1       33.9400   32.9340   55.3910 N.ar  274  TRP274     -0.2442
    148  CE2       35.0880   33.2440   54.7110 C.ar  274  TRP274      0.0810
    149  CE3       37.3700   32.4340   54.5760 C.ar  274  TRP274      0.0012
    150  CZ2       35.3350   34.2460   53.7650 C.ar  274  TRP274      0.0191
    151  CZ3       37.6170   33.4320   53.6340 C.ar  274  TRP274      0.0001
    152  CH2       36.6010   34.3240   53.2390 C.ar  274  TRP274      0.0015
@<TRIPOS>BOND
     1    68    69    1
     2    45    46    1
     3    46    47    1
     4    46    49    1
     5    71    70    2
     6    69    70    1
     7    69    72    1
     8    78    79    2
     9    78    77    1
    10    48    47    2
    11    70    76   am
    12    76    77    1
    13    77    80    1
    14    72    73    1
    15    49    50    1
    16    51    50   ar
    17    51    53   ar
    18    50    52   ar
    19    80    81    1
    20    73    74    2
    21    73    75   am
    22    35    36    1
    23    36    37    1
    24    36    39    1
    25    81    82    1
    26    37    38    2
    27    53    54   ar
    28    20    21    2
    29    20    19    1
    30    52    55   ar
    31    52    54   ar
    32    88    87    2
    33    85    86    1
    34    27    28    1
    35    41    43   ar
    36    41    40   ar
    37    39    40    1
    38    19    18    1
    39    19    22    1
    40    55    57   ar
    41    54    56   ar
    42    43    44   ar
    43    40    42   ar
    44    87    86    1
    45    28    29    1
    46    28    31    1
    47    82    83   ar
    48    82    84   ar
    49   105   103   am
    50    97    98    1
    51    62    61    2
    52    86    89    1
    53    61    60    1
    54    29    30    2
    55    22    23    1
    56    93    91   ar
    57    93    95   ar
    58   102   103    1
    59   102   101    1
    60    91    90   ar
    61    44    42   ar
    62    57    58   ar
    63    56    58   ar
    64    31    32    1
    65   103   104    2
    66    59    60    1
    67    96    95    1
    68    23    24    1
    69    95    94   ar
    70    98   101    1
    71    98    99    1
    72    90    89    1
    73    90    92   ar
    74    60    63    1
    75    33    32   ar
    76   124   122   ar
    77    94    92   ar
    78    32    34   ar
    79    63    64    1
    80    24    25    1
    81    99   100    2
    82   122   121    1
    83   122   123   ar
    84    25    26    1
    85   121   120    1
    86   116   117    1
    87    13    12    2
    88    64    65    1
    89    66    65    2
    90    12    11    1
    91   120   117    1
    92    65    67   am
    93   138   137   ar
    94   138   136   ar
    95   137   135   ar
    96   117   118    1
    97    11    10    1
    98    11    14    1
    99   106   107    1
   100   113   115   ar
   101   113   111   ar
   102     4     3    2
   103   136   134   ar
   104   135   132   ar
   105    10     3   am
   106   115   114   ar
   107   118   119    2
   108     3     2    1
   109     1     2    1
   110     2     5    1
   111    14    15    1
   112   111   110    1
   113   111   112   ar
   114    16    15    2
   115   134   132   ar
   116   134   133   ar
   117   132   130   ar
   118   110   107    1
   119   109   108    2
   120   107   108    1
   121   114   112   ar
   122    15    17   am
   123   133   131   ar
   124   130   129    1
   125   130   131   ar
   126     5     6    1
   127   152   151   ar
   128   152   150   ar
   129   129   126    1
   130   151   149   ar
   131     6     7    1
   132   125   126    1
   133   150   148   ar
   134   126   127    1
   135   149   146   ar
   136   148   146   ar
   137   148   147   ar
   138   146   144   ar
   139     7     9   ar
   140     7     8   ar
   141   127   128    2
   142   147   145   ar
   143   144   145   ar
   144   144   143    1
   145   143   140    1
   146   140   139    1
   147   140   141    1
   148   141   142    2
