@<TRIPOS>MOLECULE
tmp/1v6xA03.pdb
 92 89 0 0 0
SMALL
GASTEIGER

@<TRIPOS>ATOM
      1  N          5.5960   36.4240   76.9940 N.3   408  ASP408     -0.1225
      2  CA         4.2940   35.9630   77.4350 C.3   408  ASP408      0.1805
      3  C          3.7050   36.8120   78.5600 C.2   408  ASP408      0.2598
      4  O          4.3500   37.0210   79.5830 O.2   408  ASP408     -0.2718
      5  CB         4.4680   34.5030   77.8820 C.3   408  ASP408      0.1424
      6  CG         3.1990   33.8850   78.4110 C.2   408  ASP408      0.3668
      7  OD1        2.6850   34.3750   79.4330 O.co2 408  ASP408     -0.2456
      8  OD2        2.7290   32.8990   77.8010 O.co2 408  ASP408     -0.2456
      9  N          2.4910   37.3160   78.3570 N.am  409  ALA409     -0.1966
     10  CA         1.8160   38.1090   79.3800 C.3   409  ALA409      0.1728
     11  C          1.3120   37.0920   80.4080 C.2   409  ALA409      0.2616
     12  O          0.4420   36.2720   80.1100 O.2   409  ALA409     -0.2715
     13  CB         0.6500   38.8800   78.7740 C.3   409  ALA409      0.0334
     14  N          1.8780   37.1530   81.6100 N.am  410  VAL410     -0.1963
     15  CA         1.5520   36.2330   82.6930 C.3   410  VAL410      0.1727
     16  C          0.0650   35.9340   82.9030 C.2   410  VAL410      0.2617
     17  O         -0.7740   36.8360   82.9520 O.2   410  VAL410     -0.2715
     18  CB         2.1610   36.7310   84.0260 C.3   410  VAL410      0.0290
     19  CG1        1.8700   35.7330   85.1430 C.3   410  VAL410      0.0023
     20  CG2        3.6690   36.9130   83.8700 C.3   410  VAL410      0.0023
     21  N         -0.2380   34.6440   83.0290 N.am  411  GLY411     -0.1940
     22  CA        -1.6030   34.1970   83.2440 C.3   411  GLY411      0.2014
     23  C         -2.5720   34.6950   82.1970 C.2   411  GLY411      0.2639
     24  O         -3.7730   34.7680   82.4460 O.2   411  GLY411     -0.2714
     25  N         -2.0590   35.0330   81.0200 N.am  412  GLY412     -0.1954
     26  CA        -2.9200   35.5380   79.9670 C.3   412  GLY412      0.1869
     27  C         -3.5710   36.8480   80.3730 C.2   412  GLY412      0.2309
     28  O         -4.6020   37.2340   79.8260 O.2   412  GLY412     -0.2863
     29  N          6.7250   37.6760   81.0180 N.3   421  GLN421     -0.1245
     30  CA         7.6310   36.5770   81.3200 C.3   421  GLN421      0.1566
     31  C          7.9780   35.8220   80.0460 C.2   421  GLN421      0.2260
     32  O          7.4270   36.0950   78.9760 O.2   421  GLN421     -0.2867
     33  CB         6.9450   35.6000   82.2820 C.3   421  GLN421      0.0367
     34  CG         5.7960   34.8230   81.6270 C.3   421  GLN421      0.0905
     35  CD         5.0510   33.8980   82.5830 C.2   421  GLN421      0.2608
     36  OE1        5.5990   33.4410   83.5840 O.2   421  GLN421     -0.2717
     37  NE2        3.7960   33.6060   82.2600 N.am  421  GLN421     -0.0878
     38  N          7.9930   32.1280   78.1920 N.3   423  TYR423     -0.1227
     39  CA         7.2150   30.9080   78.3370 C.3   423  TYR423      0.1736
     40  C          7.1680   30.1550   77.0200 C.2   423  TYR423      0.2596
     41  O          7.2720   30.7630   75.9570 O.2   423  TYR423     -0.2718
     42  CB         5.7990   31.2360   78.8220 C.3   423  TYR423      0.0548
     43  CG         5.1210   30.0620   79.4920 C.ar  423  TYR423     -0.0200
     44  CD1        4.5660   29.0320   78.7370 C.ar  423  TYR423     -0.0009
     45  CD2        5.0900   29.9510   80.8850 C.ar  423  TYR423     -0.0009
     46  CE1        4.0000   27.9140   79.3500 C.ar  423  TYR423      0.0417
     47  CE2        4.5230   28.8340   81.5080 C.ar  423  TYR423      0.0417
     48  CZ         3.9810   27.8200   80.7290 C.ar  423  TYR423      0.1957
     49  OH         3.4230   26.7070   81.3150 O.3   423  TYR423     -0.2866
     50  N          7.0340   28.8320   77.0920 N.am  424  SER424     -0.1938
     51  CA         6.9690   28.0100   75.8890 C.3   424  SER424      0.2055
     52  C          5.9900   28.6370   74.9190 C.2   424  SER424      0.2643
     53  O          4.8700   28.9770   75.2930 O.2   424  SER424     -0.2714
     54  CB         6.5040   26.5890   76.2180 C.3   424  SER424      0.2130
     55  OG         7.4730   25.9040   76.9890 O.3   424  SER424     -0.2179
     56  N          6.4160   28.7910   73.6720 N.am  425  CYS425     -0.1953
     57  CA         5.5650   29.3930   72.6600 C.3   425  CYS425      0.1843
     58  C          4.3020   28.5670   72.4880 C.2   425  CYS425      0.2626
     59  O          4.3630   27.3470   72.3350 O.2   425  CYS425     -0.2714
     60  CB         6.3360   29.5140   71.3540 C.3   425  CYS425      0.0997
     61  SG         7.8070   30.5790   71.5090 S.3   425  CYS425     -0.0797
     62  N          3.1570   29.2400   72.5010 N.am  426  SER426     -0.1936
     63  CA         1.8760   28.5550   72.4140 C.3   426  SER426      0.2055
     64  C          0.9150   29.1000   71.3720 C.2   426  SER426      0.2643
     65  O         -0.1600   28.5370   71.1790 O.2   426  SER426     -0.2714
     66  CB         1.1880   28.6290   73.7710 C.3   426  SER426      0.2130
     67  OG         0.8940   29.9870   74.0790 O.3   426  SER426     -0.2179
     68  N          1.2860   30.1940   70.7150 N.am  427  ASN427     -0.1971
     69  CA         0.4160   30.8080   69.7210 C.3   427  ASN427      0.1688
     70  C         -0.8060   31.4230   70.4060 C.2   427  ASN427      0.2292
     71  O         -1.8100   31.7330   69.7570 O.2   427  ASN427     -0.2864
     72  CB        -0.0330   29.7740   68.6820 C.3   427  ASN427      0.1181
     73  CG         1.1070   29.2970   67.8000 C.2   427  ASN427      0.2629
     74  OD1        1.7180   30.0830   67.0760 O.2   427  ASN427     -0.2716
     75  ND2        1.3980   28.0030   67.8590 N.am  427  ASN427     -0.0877
     76  N         -1.8230   36.0050   74.1570 N.3   430  ASN430     -0.1225
     77  CA        -1.0020   36.7050   75.1370 C.3   430  ASN430      0.1785
     78  C          0.4780   36.5560   74.7670 C.2   430  ASN430      0.2597
     79  O          1.3630   36.9780   75.5100 O.2   430  ASN430     -0.2718
     80  CB        -1.2650   36.1490   76.5410 C.3   430  ASN430      0.1169
     81  CG        -0.8230   34.7080   76.6870 C.2   430  ASN430      0.2627
     82  OD1       -1.0730   33.8800   75.8120 O.2   430  ASN430     -0.2716
     83  ND2       -0.1700   34.3990   77.8030 N.am  430  ASN430     -0.0877
     84  N          0.7320   35.9400   73.6150 N.am  431  GLN431     -0.1979
     85  CA         2.0950   35.7640   73.1140 C.3   431  GLN431      0.1601
     86  C          2.2240   36.3650   71.7060 C.2   431  GLN431      0.2287
     87  O          3.2430   36.1940   71.0320 O.2   431  GLN431     -0.2864
     88  CB         2.4840   34.2760   73.0910 C.3   431  GLN431      0.0394
     89  CG         2.8780   33.7070   74.4570 C.3   431  GLN431      0.0908
     90  CD         3.4510   32.2970   74.3720 C.2   431  GLN431      0.2608
     91  OE1        3.7040   31.7840   73.2850 O.2   431  GLN431     -0.2717
     92  NE2        3.6620   31.6700   75.5240 N.am  431  GLN431     -0.0878
@<TRIPOS>BOND
     1    74    73    2
     2    73    75   am
     3    73    72    1
     4    72    69    1
     5    69    70    1
     6    69    68    1
     7    71    70    2
     8    68    64   am
     9    87    86    2
    10    65    64    2
    11    60    61    1
    12    60    57    1
    13    64    63    1
    14    86    85    1
    15    59    58    2
    16    63    62    1
    17    63    66    1
    18    58    62   am
    19    58    57    1
    20    57    56    1
    21    88    85    1
    22    88    89    1
    23    85    84    1
    24    91    90    2
    25    84    78   am
    26    56    52   am
    27    66    67    1
    28    76    77    1
    29    90    89    1
    30    90    92   am
    31    78    77    1
    32    78    79    2
    33    52    53    2
    34    52    51    1
    35    77    80    1
    36    82    81    2
    37    51    54    1
    38    51    50    1
    39    41    40    2
    40    54    55    1
    41    80    81    1
    42    81    83   am
    43     1     2    1
    44    40    50   am
    45    40    39    1
    46     2     5    1
    47     2     3    1
    48     8     6   ar
    49     5     6    1
    50    38    39    1
    51    39    42    1
    52     9     3   am
    53     9    10    1
    54     6     7   ar
    55     3     4    2
    56    44    46   ar
    57    44    43   ar
    58    13    10    1
    59    42    43    1
    60    32    31    2
    61    46    48   ar
    62    10    11    1
    63    43    45   ar
    64    28    27    2
    65    26    27    1
    66    26    25    1
    67    31    30    1
    68    12    11    2
    69    11    14   am
    70    48    49    1
    71    48    47   ar
    72    45    47   ar
    73    29    30    1
    74    25    23   am
    75    30    33    1
    76    14    15    1
    77    34    33    1
    78    34    35    1
    79    23    24    2
    80    23    22    1
    81    37    35   am
    82    35    36    2
    83    15    16    1
    84    15    18    1
    85    16    17    2
    86    16    21   am
    87    21    22    1
    88    20    18    1
    89    18    19    1
