@<TRIPOS>MOLECULE
tmp/1v71A00.pdb
 141 134 0 0 0
SMALL
GASTEIGER

@<TRIPOS>ATOM
      1  N          6.2280   53.5870   26.9660 N.3    50  ALA50      -0.1231
      2  CA         7.6430   53.4550   26.6460 C.3    50  ALA50       0.1694
      3  C          8.1860   52.1080   27.0970 C.2    50  ALA50       0.2592
      4  O          7.5950   51.4330   27.9420 O.2    50  ALA50      -0.2718
      5  CB         8.4440   54.5920   27.2790 C.3    50  ALA50       0.0304
      6  N          9.3240   51.7290   26.5260 N.am   51  PHE51      -0.1962
      7  CA         9.9520   50.4530   26.8290 C.3    51  PHE51       0.1771
      8  C         10.3740   50.3350   28.2870 C.2    51  PHE51       0.2619
      9  O         10.4540   49.2310   28.8190 O.2    51  PHE51      -0.2715
     10  CB        11.1840   50.2600   25.9380 C.3    51  PHE51       0.0574
     11  CG        12.3670   51.0880   26.3590 C.ar   51  PHE51      -0.0200
     12  CD1       13.2490   50.6280   27.3370 C.ar   51  PHE51      -0.0042
     13  CD2       12.5850   52.3410   25.7980 C.ar   51  PHE51      -0.0042
     14  CE1       14.3320   51.4070   27.7500 C.ar   51  PHE51      -0.0003
     15  CE2       13.6640   53.1310   26.2010 C.ar   51  PHE51      -0.0003
     16  CZ        14.5420   52.6680   27.1800 C.ar   51  PHE51      -0.0000
     17  N         10.6420   51.4710   28.9300 N.am   52  LYS52      -0.1977
     18  CA        11.1050   51.4670   30.3180 C.3    52  LYS52       0.1596
     19  C         10.2420   50.6660   31.2870 C.2    52  LYS52       0.2287
     20  O         10.7120   50.2640   32.3480 O.2    52  LYS52      -0.2864
     21  CB        11.2690   52.9020   30.8350 C.3    52  LYS52       0.0298
     22  CG        12.5080   53.6290   30.2980 C.3    52  LYS52       0.0038
     23  CD        12.7780   54.8950   31.1020 C.3    52  LYS52       0.0206
     24  CE        14.0700   55.5790   30.6930 C.3    52  LYS52       0.1093
     25  NZ        13.8640   55.9060   29.2930 N.3    52  LYS52      -0.1314
     26  N         10.7620   59.1530   31.0970 N.3    79  ASN79      -0.1240
     27  CA         9.8610   58.0110   31.2040 C.3    79  ASN79       0.1653
     28  C         10.0810   57.0510   32.3670 C.2    79  ASN79       0.2266
     29  O          9.1600   56.3450   32.7650 O.2    79  ASN79      -0.2867
     30  CB         9.8690   57.2080   29.9020 C.3    79  ASN79       0.1155
     31  CG         9.1970   57.9430   28.7800 C.2    79  ASN79       0.2627
     32  OD1        8.1260   58.5100   28.9670 O.2    79  ASN79      -0.2716
     33  ND2        9.8100   57.9310   27.6020 N.am   79  ASN79      -0.0877
     34  N         17.6330   54.7300   36.3830 N.3   146  PRO146     -0.2102
     35  CA        16.8830   54.6820   35.1230 C.3   146  PRO146      0.1504
     36  C         17.5210   53.8120   34.0370 C.2   146  PRO146      0.2575
     37  O         16.8580   53.4520   33.0720 O.2   146  PRO146     -0.2718
     38  CB        16.7770   56.1540   34.7210 C.3   146  PRO146      0.0282
     39  CG        17.9890   56.7740   35.3660 C.3   146  PRO146      0.0208
     40  CD        18.0100   56.1140   36.7160 C.3   146  PRO146      0.0893
     41  N         18.7940   53.4640   34.2010 N.am  147  TYR147     -0.1977
     42  CA        19.4670   52.6180   33.2140 C.3   147  TYR147      0.1639
     43  C         20.6490   51.7980   33.7420 C.2   147  TYR147      0.2290
     44  O         20.8080   50.6330   33.3740 O.2   147  TYR147     -0.2864
     45  CB        19.9100   53.4670   32.0080 C.3   147  TYR147      0.0560
     46  CG        20.7990   54.6460   32.3500 C.ar  147  TYR147     -0.0198
     47  CD1       22.1750   54.4800   32.5190 C.ar  147  TYR147     -0.0009
     48  CD2       20.2630   55.9250   32.5240 C.ar  147  TYR147     -0.0009
     49  CE1       22.9960   55.5560   32.8540 C.ar  147  TYR147      0.0417
     50  CE2       21.0770   57.0080   32.8620 C.ar  147  TYR147      0.0417
     51  CZ        22.4410   56.8130   33.0250 C.ar  147  TYR147      0.1957
     52  OH        23.2520   57.8720   33.3700 O.3   147  TYR147     -0.2866
     53  N         14.9430   45.8360   29.8500 N.3   156  GLN156     -0.1245
     54  CA        14.8010   46.6050   28.6150 C.3   156  GLN156      0.1566
     55  C         15.0970   45.7050   27.4140 C.2   156  GLN156      0.2260
     56  O         14.5010   45.8640   26.3500 O.2   156  GLN156     -0.2867
     57  CB        15.7510   47.8150   28.5990 C.3   156  GLN156      0.0367
     58  CG        15.8390   48.5970   29.9050 C.3   156  GLN156      0.0905
     59  CD        14.5140   49.1800   30.3680 C.2   156  GLN156      0.2608
     60  OE1       13.4630   48.5530   30.2470 O.2   156  GLN156     -0.2717
     61  NE2       14.5660   50.3800   30.9240 N.am  156  GLN156     -0.0878
     62  N         17.8200   53.2210   20.1640 N.3   176  CYS176     -0.1221
     63  CA        18.0200   54.5520   20.7360 C.3   176  CYS176      0.1808
     64  C         19.0080   54.4990   21.9090 C.2   176  CYS176      0.2601
     65  O         19.0270   53.5280   22.6700 O.2   176  CYS176     -0.2717
     66  CB        16.6690   55.1070   21.2070 C.3   176  CYS176      0.0970
     67  SG        15.3520   55.0130   19.9490 S.3   176  CYS176     -0.0800
     68  N         19.8300   55.5340   22.0600 N.am  177  LEU177     -0.1965
     69  CA        20.8040   55.5510   23.1450 C.3   177  LEU177      0.1728
     70  C         20.8380   56.7890   24.0390 C.2   177  LEU177      0.2617
     71  O         21.0620   57.9140   23.5810 O.2   177  LEU177     -0.2715
     72  CB        22.2220   55.3070   22.6000 C.3   177  LEU177      0.0311
     73  CG        23.3370   55.4730   23.6440 C.3   177  LEU177      0.0022
     74  CD1       23.1330   54.4740   24.7780 C.3   177  LEU177      0.0001
     75  CD2       24.7110   55.2650   22.9930 C.3   177  LEU177      0.0001
     76  N         20.6170   56.5450   25.3250 N.am  178  GLY178     -0.1940
     77  CA        20.6590   57.5800   26.3360 C.3   178  GLY178      0.2014
     78  C         21.7100   57.0900   27.3090 C.2   178  GLY178      0.2639
     79  O         22.9040   57.2010   27.0330 O.2   178  GLY178     -0.2714
     80  N         21.2740   56.5270   28.4360 N.am  179  GLY179     -0.1939
     81  CA        22.2120   56.0000   29.4120 C.3   179  GLY179      0.2014
     82  C         22.7220   54.6210   29.0100 C.2   179  GLY179      0.2639
     83  O         23.7210   54.1370   29.5430 O.2   179  GLY179     -0.2714
     84  N         22.0220   53.9700   28.0840 N.am  180  GLY180     -0.1939
     85  CA        22.4650   52.6630   27.6180 C.3   180  GLY180      0.2014
     86  C         21.7460   51.4250   28.1220 C.2   180  GLY180      0.2639
     87  O         22.1970   50.3050   27.8740 O.2   180  GLY180     -0.2714
     88  N         20.6320   51.6030   28.8250 N.am  181  GLY181     -0.1939
     89  CA        19.9060   50.4440   29.3140 C.3   181  GLY181      0.2014
     90  C         19.2890   49.6700   28.1610 C.2   181  GLY181      0.2638
     91  O         19.4240   48.4490   28.0710 O.2   181  GLY181     -0.2714
     92  N         18.6160   50.3880   27.2690 N.am  182  LEU182     -0.1977
     93  CA        17.9770   49.7650   26.1170 C.3   182  LEU182      0.1596
     94  C         19.0170   49.1210   25.2110 C.2   182  LEU182      0.2287
     95  O         18.8840   47.9630   24.8230 O.2   182  LEU182     -0.2864
     96  CB        17.1880   50.8020   25.3150 C.3   182  LEU182      0.0297
     97  CG        16.4550   50.2760   24.0780 C.3   182  LEU182      0.0022
     98  CD1       15.4520   49.2070   24.4840 C.3   182  LEU182      0.0001
     99  CD2       15.7500   51.4230   23.3700 C.3   182  LEU182      0.0001
    100  N         14.7670   62.4700   26.0440 N.3   231  GLY231     -0.1210
    101  CA        15.0450   61.2290   26.7510 C.3   231  GLY231      0.1956
    102  C         16.4630   60.7330   26.5370 C.2   231  GLY231      0.2611
    103  O         16.8530   59.6860   27.0590 O.2   231  GLY231     -0.2717
    104  N         17.2420   61.4880   25.7660 N.am  232  ALA232     -0.1979
    105  CA        18.6210   61.1140   25.4860 C.3   232  ALA232      0.1597
    106  C         19.5990   62.2440   25.8130 C.2   232  ALA232      0.2287
    107  O         20.6590   62.3610   25.1900 O.2   232  ALA232     -0.2864
    108  CB        18.7550   60.7050   24.0210 C.3   232  ALA232      0.0319
    109  N         21.2580   62.4570   28.4370 N.3   234  THR234     -0.1218
    110  CA        22.1360   61.8810   29.4500 C.3   234  THR234      0.1862
    111  C         23.5190   62.5050   29.3530 C.2   234  THR234      0.2287
    112  O         24.0000   62.7990   28.2590 O.2   234  THR234     -0.2866
    113  CB        22.2960   60.3590   29.2440 C.3   234  THR234      0.1770
    114  OG1       21.1520   59.8470   28.5510 O.3   234  THR234     -0.2211
    115  CG2       22.4290   59.6510   30.5810 C.3   234  THR234      0.0375
    116  N          7.6820   59.8510   20.2210 N.3   276  GLU276     -0.1245
    117  CA         8.3490   61.0160   20.7970 C.3   276  GLU276      0.1567
    118  C          9.7070   61.2090   20.1170 C.2   276  GLU276      0.2260
    119  O         10.3080   60.2550   19.6170 O.2   276  GLU276     -0.2867
    120  CB         8.5030   60.8660   22.3180 C.3   276  GLU276      0.0388
    121  CG         9.3190   59.6730   22.7990 C.3   276  GLU276      0.1160
    122  CD         9.4080   59.6160   24.3180 C.2   276  GLU276      0.3649
    123  OE1       10.1490   60.4290   24.9210 O.co2 276  GLU276     -0.2457
    124  OE2        8.7250   58.7610   24.9150 O.co2 276  GLU276     -0.2457
    125  N         12.8280   61.4240   21.0020 N.3   278  THR278     -0.1218
    126  CA        13.8830   60.4910   21.3620 C.3   278  THR278      0.1862
    127  C         13.6510   59.1120   20.7340 C.2   278  THR278      0.2287
    128  O         14.6090   58.4080   20.3940 O.2   278  THR278     -0.2866
    129  CB        14.0080   60.3490   22.9060 C.3   278  THR278      0.1770
    130  OG1       14.1280   61.6470   23.5010 O.3   278  THR278     -0.2211
    131  CG2       15.2490   59.5650   23.2650 C.3   278  THR278      0.0375
    132  N         11.3910   53.2920   20.7510 N.3   303  SER303     -0.1202
    133  CA        11.4510   53.3450   22.2070 C.3   303  SER303      0.2023
    134  C         10.2660   53.9150   22.9900 C.2   303  SER303      0.2658
    135  O          9.9850   53.4480   24.0920 O.2   303  SER303     -0.2713
    136  CB        12.7370   54.0490   22.6300 C.3   303  SER303      0.2104
    137  OG        12.7740   55.3830   22.1540 O.3   303  SER303     -0.2182
    138  N          9.5710   54.9080   22.4510 N.am  304  GLY304     -0.1731
    139  CA         8.4420   55.4530   23.1920 C.2   304  GLY304      0.1340
    140  C          7.6020   56.4600   22.4340 C.2   304  GLY304      0.2521
    141  O          7.9930   56.9310   21.3700 O.2   304  GLY304     -0.2816
@<TRIPOS>BOND
     1   119   118    2
     2    67    66    1
     3   118   117    1
     4    62    63    1
     5   116   117    1
     6   128   127    2
     7   127   126    1
     8    63    66    1
     9    63    64    1
    10   132   133    1
    11   117   120    1
    12   125   126    1
    13   126   129    1
    14   141   140    2
    15    64    68   am
    16    64    65    2
    17    68    69    1
    18   137   136    1
    19   133   136    1
    20   133   134    1
    21   120   121    1
    22   140   139    1
    23   138   134    1
    24   138   139    2
    25    72    69    1
    26    72    73    1
    27   121   122    1
    28   129   131    1
    29   129   130    1
    30   134   135    2
    31    75    73    1
    32    69    70    1
    33    99    97    1
    34    71    70    2
    35    73    74    1
    36   108   105    1
    37    70    76   am
    38    97    98    1
    39    97    96    1
    40   122   124   ar
    41   122   123   ar
    42    95    94    2
    43   107   106    2
    44    94    93    1
    45    96    93    1
    46    76    77    1
    47   105   104    1
    48   105   106    1
    49   104   102   am
    50    13    15   ar
    51    13    11   ar
    52    10    11    1
    53    10     7    1
    54   100   101    1
    55    93    92    1
    56    15    16   ar
    57    77    78    1
    58    56    55    2
    59    11    12   ar
    60     6     7    1
    61     6     3   am
    62   102   101    1
    63   102   103    2
    64     2     1    1
    65     2     3    1
    66     2     5    1
    67     7     8    1
    68    79    78    2
    69     3     4    2
    70    16    14   ar
    71    92    90   am
    72    78    80   am
    73    12    14   ar
    74    55    54    1
    75    33    31   am
    76    85    84    1
    77    85    86    1
    78    87    86    2
    79    91    90    2
    80    84    82   am
    81    86    88   am
    82    90    89    1
    83   112   111    2
    84     8     9    2
    85     8    17   am
    86    80    81    1
    87   109   110    1
    88   114   113    1
    89    57    54    1
    90    57    58    1
    91    54    53    1
    92    31    32    2
    93    31    30    1
    94    88    89    1
    95    17    18    1
    96    82    81    1
    97    82    83    2
    98   113   110    1
    99   113   115    1
   100    25    24    1
   101   111   110    1
   102    30    27    1
   103    58    59    1
   104    60    59    2
   105    22    21    1
   106    22    23    1
   107    18    21    1
   108    18    19    1
   109    59    61   am
   110    24    23    1
   111    26    27    1
   112    27    28    1
   113    19    20    2
   114    45    46    1
   115    45    42    1
   116    46    47   ar
   117    46    48   ar
   118    28    29    2
   119    47    49   ar
   120    48    50   ar
   121    49    51   ar
   122    50    51   ar
   123    51    52    1
   124    37    36    2
   125    42    43    1
   126    42    41    1
   127    44    43    2
   128    36    41   am
   129    36    35    1
   130    38    35    1
   131    38    39    1
   132    35    34    1
   133    39    40    1
   134    34    40    1
