@<TRIPOS>MOLECULE
tmp/1v72A00.pdb
 115 105 0 0 0
SMALL
GASTEIGER

@<TRIPOS>ATOM
      1  N         65.1130   68.6170   69.3460 N.3    11  ASN11      -0.1240
      2  CA        64.7050   68.8110   67.9560 C.3    11  ASN11       0.1653
      3  C         64.4890   70.2720   67.5600 C.2    11  ASN11       0.2266
      4  O         64.1500   70.5630   66.4140 O.2    11  ASN11      -0.2867
      5  CB        63.4550   67.9700   67.6220 C.3    11  ASN11       0.1155
      6  CG        62.1910   68.4330   68.3410 C.2    11  ASN11       0.2627
      7  OD1       61.1710   67.7430   68.3010 O.2    11  ASN11      -0.2716
      8  ND2       62.2400   69.5870   68.9830 N.am   11  ASN11      -0.0877
      9  N         63.7970   60.8020   58.0470 N.3    62  THR62      -0.1203
     10  CA        63.3710   60.9160   59.4390 C.3    62  THR62       0.1994
     11  C         63.5690   59.6590   60.2850 C.2    62  THR62       0.2618
     12  O         63.7660   58.5580   59.7640 O.2    62  THR62      -0.2717
     13  CB        61.8730   61.2820   59.5270 C.3    62  THR62       0.1784
     14  OG1       61.0860   60.1610   59.0980 O.3    62  THR62      -0.2211
     15  CG2       61.5530   62.4780   58.6420 C.3    62  THR62       0.0376
     16  N         63.4890   59.8460   61.5990 N.am   63  GLY63      -0.1942
     17  CA        63.6350   58.7470   62.5340 C.3    63  GLY63       0.2014
     18  C         62.4050   57.8610   62.4970 C.2    63  GLY63       0.2639
     19  O         62.5020   56.6610   62.7250 O.2    63  GLY63      -0.2714
     20  N         61.2460   58.4580   62.2150 N.am   64  THR64      -0.1950
     21  CA        60.0050   57.7030   62.1280 C.3    64  THR64       0.1897
     22  C         60.1170   56.7420   60.9530 C.2    64  THR64       0.2313
     23  O         59.7270   55.5820   61.0600 O.2    64  THR64      -0.2863
     24  CB        58.7800   58.6310   61.9290 C.3    64  THR64       0.1794
     25  OG1       58.5480   59.3850   63.1270 O.3    64  THR64      -0.2208
     26  CG2       57.5320   57.8190   61.5970 C.3    64  THR64       0.0378
     27  N         62.5750   53.8340   61.7840 N.3    67  ASN67      -0.1240
     28  CA        61.9310   52.8760   62.6770 C.3    67  ASN67       0.1653
     29  C         60.9660   51.9660   61.9200 C.2    67  ASN67       0.2266
     30  O         61.0970   50.7440   61.9470 O.2    67  ASN67      -0.2867
     31  CB        61.1470   53.6050   63.7870 C.3    67  ASN67       0.1155
     32  CG        62.0480   54.2030   64.8700 C.2    67  ASN67       0.2627
     33  OD1       63.2410   53.9040   64.9490 O.2    67  ASN67      -0.2716
     34  ND2       61.4620   55.0380   65.7260 N.am   67  ASN67      -0.0877
     35  N         58.3800   55.6630   71.2950 N.3    88  HIS88      -0.1241
     36  CA        58.0060   56.5680   70.2340 C.3    88  HIS88       0.1621
     37  C         57.1520   55.8470   69.1850 C.2    88  HIS88       0.2264
     38  O         56.1560   56.3970   68.7190 O.2    88  HIS88      -0.2867
     39  CB        59.2660   57.1790   69.6140 C.3    88  HIS88       0.0745
     40  CG        58.9960   58.3430   68.7130 C.ar   88  HIS88       0.0817
     41  ND1       58.7110   58.1970   67.3710 N.ar   88  HIS88      -0.2268
     42  CD2       58.9550   59.6740   68.9640 C.ar   88  HIS88       0.1154
     43  CE1       58.5070   59.3880   66.8350 C.ar   88  HIS88       0.1986
     44  NE2       58.6480   60.3020   67.7800 N.ar   88  HIS88      -0.2212
     45  N         64.3990   51.3340   72.7790 N.3   143  THR143     -0.1218
     46  CA        64.9190   52.6510   72.4720 C.3   143  THR143      0.1862
     47  C         66.1570   52.8610   73.3340 C.2   143  THR143      0.2287
     48  O         66.0550   52.9190   74.5570 O.2   143  THR143     -0.2866
     49  CB        63.8730   53.7220   72.7780 C.3   143  THR143      0.1770
     50  OG1       62.6900   53.4620   72.0070 O.3   143  THR143     -0.2211
     51  CG2       64.4140   55.1050   72.4340 C.3   143  THR143      0.0375
     52  N         69.3250   55.8570   73.7150 N.3   145  ALA145     -0.1245
     53  CA        68.6790   56.1500   74.9840 C.3   145  ALA145      0.1562
     54  C         67.1860   56.3670   74.8260 C.2   145  ALA145      0.2260
     55  O         66.7060   56.6760   73.7410 O.2   145  ALA145     -0.2867
     56  CB        69.2730   57.4090   75.6370 C.3   145  ALA145      0.0290
     57  N         63.1730   57.2360   75.6870 N.3   147  GLU147     -0.1245
     58  CA        62.3860   58.4440   75.5190 C.3   147  GLU147      0.1567
     59  C         62.4330   59.3550   76.7500 C.2   147  GLU147      0.2260
     60  O         62.0930   60.5310   76.6600 O.2   147  GLU147     -0.2867
     61  CB        60.9280   58.0820   75.2000 C.3   147  GLU147      0.0388
     62  CG        60.6910   57.4580   73.8090 C.3   147  GLU147      0.1160
     63  CD        61.1140   55.9950   73.7060 C.2   147  GLU147      0.3649
     64  OE1       60.8880   55.3830   72.6380 O.co2 147  GLU147     -0.2457
     65  OE2       61.6710   55.4550   74.6870 O.co2 147  GLU147     -0.2457
     66  N         65.9130   51.6280   68.5060 N.3   174  ASP174     -0.1239
     67  CA        65.5350   52.9720   68.0980 C.3   174  ASP174      0.1674
     68  C         66.6060   53.8860   68.6820 C.2   174  ASP174      0.2266
     69  O         66.5130   54.2990   69.8390 O.2   174  ASP174     -0.2867
     70  CB        64.1650   53.3570   68.6670 C.3   174  ASP174      0.1410
     71  CG        63.7510   54.7740   68.2840 C.2   174  ASP174      0.3668
     72  OD1       64.6220   55.5350   67.8110 O.co2 174  ASP174     -0.2456
     73  OD2       62.5670   55.1300   68.4620 O.co2 174  ASP174     -0.2456
     74  N         67.4340   57.0660   68.1250 N.3   176  SER176     -0.1202
     75  CA        67.2090   58.4690   67.8310 C.3   176  SER176      0.2020
     76  C         68.2660   59.2690   68.5940 C.2   176  SER176      0.2618
     77  O         68.7960   60.2610   68.0910 O.2   176  SER176     -0.2717
     78  CB        65.8270   58.8750   68.3090 C.3   176  SER176      0.2103
     79  OG        65.6210   60.2460   68.0880 O.3   176  SER176     -0.2182
     80  N         68.5530   58.8260   69.8170 N.am  177  ARG177     -0.1979
     81  CA        69.5610   59.4680   70.6540 C.3   177  ARG177      0.1597
     82  C         70.6640   58.4490   70.9690 C.2   177  ARG177      0.2287
     83  O         71.1400   58.3300   72.1020 O.2   177  ARG177     -0.2864
     84  CB        68.9100   60.0100   71.9300 C.3   177  ARG177      0.0334
     85  CG        67.8930   61.1200   71.6560 C.3   177  ARG177      0.0492
     86  CD        67.2740   61.6940   72.9230 C.3   177  ARG177      0.2205
     87  NE        66.3930   62.8300   72.6410 N.pl3 177  ARG177     -0.0865
     88  CZ        65.0640   62.7920   72.6880 C.cat 177  ARG177      0.5346
     89  NH1       64.4340   61.6730   73.0060 N.pl3 177  ARG177      0.1354
     90  NH2       64.3620   63.8860   72.4310 N.pl3 177  ARG177      0.1354
     91  N         70.0890   63.4710   63.3930 N.3   206  THR206     -0.1203
     92  CA        69.3570   64.7260   63.3620 C.3   206  THR206      0.1994
     93  C         69.3130   65.4220   64.7090 C.2   206  THR206      0.2617
     94  O         69.6700   66.5950   64.8210 O.2   206  THR206     -0.2717
     95  CB        67.9220   64.5070   62.8600 C.3   206  THR206      0.1784
     96  OG1       67.9730   64.0400   61.5070 O.3   206  THR206     -0.2211
     97  CG2       67.1210   65.8060   62.9260 C.3   206  THR206      0.0376
     98  N         68.8850   64.6980   65.7370 N.am  207  LYS207     -0.1979
     99  CA        68.7950   65.2840   67.0650 C.3   207  LYS207      0.1596
    100  C         70.1520   65.6270   67.6640 C.2   207  LYS207      0.2287
    101  O         70.2400   66.4120   68.6040 O.2   207  LYS207     -0.2864
    102  CB        68.0200   64.3500   67.9970 C.3   207  LYS207      0.0298
    103  CG        66.5220   64.5340   67.8600 C.3   207  LYS207      0.0038
    104  CD        65.7250   63.5530   68.6830 C.3   207  LYS207      0.0206
    105  CE        64.2550   63.9890   68.7590 C.3   207  LYS207      0.1093
    106  NZ        63.6300   62.6940   68.9650 N.3   207  LYS207     -0.1314
    107  N         68.9910   60.5080   58.9070 N.3   214  GLU214     -0.1245
    108  CA        69.1010   59.4110   59.8560 C.3   214  GLU214      0.1567
    109  C         69.6870   58.2540   59.0520 C.2   214  GLU214      0.2260
    110  O         69.7100   58.2960   57.8190 O.2   214  GLU214     -0.2867
    111  CB        67.7170   59.0210   60.3970 C.3   214  GLU214      0.0388
    112  CG        66.9400   60.1680   61.0420 C.3   214  GLU214      0.1160
    113  CD        67.5260   60.5960   62.3710 C.2   214  GLU214      0.3649
    114  OE1       66.9590   60.2220   63.4200 O.co2 214  GLU214     -0.2457
    115  OE2       68.5580   61.2950   62.3660 O.co2 214  GLU214     -0.2457
@<TRIPOS>BOND
     1   110   109    2
     2     9    10    1
     3    15    13    1
     4   107   108    1
     5   109   108    1
     6    14    13    1
     7    10    13    1
     8    10    11    1
     9    12    11    2
    10   108   111    1
    11    11    16   am
    12   111   112    1
    13    22    23    2
    14    22    21    1
    15   112   113    1
    16    96    95    1
    17    26    24    1
    18    16    17    1
    19    27    28    1
    20    29    30    2
    21    29    28    1
    22    24    21    1
    23    24    25    1
    24    21    20    1
    25    20    18   am
    26   115   113   ar
    27   113   114   ar
    28    18    17    1
    29    18    19    2
    30    28    31    1
    31    95    97    1
    32    95    92    1
    33    92    91    1
    34    92    93    1
    35    31    32    1
    36    93    94    2
    37    93    98   am
    38    32    33    2
    39    32    34   am
    40    98    99    1
    41     4     3    2
    42    43    41   ar
    43    43    44   ar
    44    99   100    1
    45    99   102    1
    46    41    40   ar
    47     3     2    1
    48     5     2    1
    49     5     6    1
    50   100   101    2
    51    44    42   ar
    52    72    71   ar
    53    75    74    1
    54    75    78    1
    55    75    76    1
    56   103   102    1
    57   103   104    1
    58     2     1    1
    59    79    78    1
    60    77    76    2
    61    67    66    1
    62    67    70    1
    63    67    68    1
    64    71    73   ar
    65    71    70    1
    66     7     6    2
    67     6     8   am
    68    76    80   am
    69    68    69    2
    70   104   105    1
    71    40    42   ar
    72    40    39    1
    73    38    37    2
    74   105   106    1
    75    37    36    1
    76    39    36    1
    77    80    81    1
    78    36    35    1
    79    81    82    1
    80    81    84    1
    81    82    83    2
    82    85    84    1
    83    85    86    1
    84    50    49    1
    85    90    88    1
    86    51    49    1
    87    46    49    1
    88    46    45    1
    89    46    47    1
    90    64    63   ar
    91    87    88    2
    92    87    86    1
    93    88    89    1
    94    47    48    2
    95    63    62    1
    96    63    65   ar
    97    52    53    1
    98    55    54    2
    99    62    61    1
   100    54    53    1
   101    53    56    1
   102    61    58    1
   103    58    57    1
   104    58    59    1
   105    60    59    2
