@<TRIPOS>MOLECULE
tmp/1v79A00.pdb
 208 201 0 0 0
SMALL
GASTEIGER

@<TRIPOS>ATOM
      1  N         63.7880   61.0990   41.1860 N.3    14  HIS14      -0.1241
      2  CA        62.4030   61.5350   41.4220 C.3    14  HIS14       0.1621
      3  C         61.6520   61.8890   40.1480 C.2    14  HIS14       0.2264
      4  O         62.0400   62.7290   39.3620 O.2    14  HIS14      -0.2867
      5  CB        62.3290   62.7630   42.3670 C.3    14  HIS14       0.0745
      6  CG        62.9320   62.5830   43.7540 C.ar   14  HIS14       0.0817
      7  ND1       62.1860   62.5510   44.8550 N.ar   14  HIS14      -0.2268
      8  CD2       64.2410   62.3890   44.1070 C.ar   14  HIS14       0.1154
      9  CE1       63.0530   62.3220   45.9000 C.ar   14  HIS14       0.1986
     10  NE2       64.3250   62.2120   45.4660 N.ar   14  HIS14      -0.2212
     11  N         58.9170   63.8260   39.6000 N.3    16  ASP16      -0.1225
     12  CA        58.7550   65.2990   39.7400 C.3    16  ASP16       0.1805
     13  C         59.9970   66.1390   39.6980 C.2    16  ASP16       0.2598
     14  O         59.9450   67.3470   39.6870 O.2    16  ASP16      -0.2718
     15  CB        57.8640   65.8130   40.9400 C.3    16  ASP16       0.1424
     16  CG        58.1500   65.2700   42.3470 C.2    16  ASP16       0.3668
     17  OD1       57.2860   65.3830   43.1880 O.co2  16  ASP16      -0.2456
     18  OD2       59.1460   64.6260   42.5960 O.co2  16  ASP16      -0.2456
     19  N         61.1320   65.4870   39.6620 N.am   17  GLY17      -0.1957
     20  CA        62.3350   66.2060   39.2700 C.3    17  GLY17       0.1869
     21  C         63.0010   65.5030   38.0970 C.2    17  GLY17       0.2309
     22  O         64.2270   65.5590   37.8630 O.2    17  GLY17      -0.2863
     23  N         67.6720   75.4740   51.7720 N.3    55  LEU55      -0.1245
     24  CA        66.3980   74.7380   51.6520 C.3    55  LEU55       0.1561
     25  C         65.1830   75.4090   50.9490 C.2    55  LEU55       0.2260
     26  O         64.5810   74.8800   50.0110 O.2    55  LEU55      -0.2867
     27  CB        66.0570   74.2920   53.0570 C.3    55  LEU55       0.0270
     28  CG        64.7270   73.6340   53.3890 C.3    55  LEU55       0.0019
     29  CD1       64.3860   72.5780   52.3530 C.3    55  LEU55       0.0001
     30  CD2       64.8270   73.1530   54.8530 C.3    55  LEU55       0.0001
     31  N         65.7330   76.3430   47.1030 N.3    58  PHE58      -0.1227
     32  CA        65.5160   74.9800   46.5070 C.3    58  PHE58       0.1736
     33  C         64.1200   74.4120   46.4840 C.2    58  PHE58       0.2595
     34  O         63.6340   73.8600   45.5280 O.2    58  PHE58      -0.2718
     35  CB        66.3810   73.9870   47.2800 C.3    58  PHE58       0.0547
     36  CG        66.4150   72.5820   46.7330 C.ar   58  PHE58      -0.0202
     37  CD1       67.4440   72.2320   45.8180 C.ar   58  PHE58      -0.0042
     38  CD2       65.3970   71.6720   47.0980 C.ar   58  PHE58      -0.0042
     39  CE1       67.3020   71.0000   45.1590 C.ar   58  PHE58      -0.0003
     40  CE2       65.2820   70.4580   46.4560 C.ar   58  PHE58      -0.0003
     41  CZ        66.2110   70.1720   45.4580 C.ar   58  PHE58      -0.0000
     42  N         63.3790   74.5390   47.5560 N.am   59  LEU59      -0.1980
     43  CA        61.9700   74.1790   47.3500 C.3    59  LEU59       0.1596
     44  C         61.1390   75.0370   46.3890 C.2    59  LEU59       0.2287
     45  O         60.2600   74.5670   45.6560 O.2    59  LEU59      -0.2864
     46  CB        61.2150   74.1070   48.6390 C.3    59  LEU59       0.0297
     47  CG        61.8290   73.1390   49.6280 C.3    59  LEU59       0.0022
     48  CD1       61.0140   73.2410   50.9120 C.3    59  LEU59       0.0001
     49  CD2       61.7820   71.6730   49.1270 C.3    59  LEU59       0.0001
     50  N         60.1180   73.7460   43.0540 N.3    62  PHE62      -0.1241
     51  CA        58.8490   73.0420   42.9090 C.3    62  PHE62       0.1605
     52  C         57.5850   73.9690   42.5950 C.2    62  PHE62       0.2264
     53  O         56.5450   73.5960   42.0260 O.2    62  PHE62      -0.2867
     54  CB        58.6420   71.9730   44.0510 C.3    62  PHE62       0.0534
     55  CG        59.6920   70.8420   43.9970 C.ar   62  PHE62      -0.0203
     56  CD1       61.0010   71.0370   44.5140 C.ar   62  PHE62      -0.0042
     57  CD2       59.3770   69.5770   43.4120 C.ar   62  PHE62      -0.0042
     58  CE1       61.9850   70.0310   44.3970 C.ar   62  PHE62      -0.0003
     59  CE2       60.3740   68.5640   43.2890 C.ar   62  PHE62      -0.0003
     60  CZ        61.6490   68.8210   43.7870 C.ar   62  PHE62      -0.0000
     61  N         60.5770   57.2030   41.8420 N.3    98  ARG98      -0.1182
     62  CA        59.9640   57.5990   43.1460 C.3    98  ARG98       0.1910
     63  C         59.2790   58.9040   43.0660 C.2    98  ARG98       0.2634
     64  O         59.6810   59.8460   42.3880 O.2    98  ARG98      -0.2714
     65  CB        60.8320   57.5360   44.4410 C.2    98  ARG98       0.0007
     66  CG        61.9670   58.4850   44.5380 C.2    98  ARG98       0.0176
     67  CD        62.9690   58.2640   45.7060 C.3    98  ARG98       0.2464
     68  NE        63.6660   56.9860   45.7200 N.pl3  98  ARG98      -0.0815
     69  CZ        64.3760   56.4730   46.7400 C.cat  98  ARG98       0.5349
     70  NH1       64.4850   56.9990   47.9410 N.pl3  98  ARG98       0.1354
     71  NH2       65.0230   55.3620   46.5350 N.pl3  98  ARG98       0.1354
     72  N         58.1930   58.8910   43.8330 N.am   99  TYR99      -0.1959
     73  CA        57.4450   60.1520   44.0210 C.3    99  TYR99       0.1771
     74  C         56.3690   60.1190   45.1510 C.2    99  TYR99       0.2620
     75  O         55.8660   59.1150   45.6560 O.2    99  TYR99      -0.2715
     76  CB        56.8340   60.6300   42.6620 C.3    99  TYR99       0.0574
     77  CG        55.7400   59.7150   42.2570 C.ar   99  TYR99      -0.0198
     78  CD1       54.4540   60.2430   42.4300 C.ar   99  TYR99      -0.0009
     79  CD2       55.9660   58.3730   41.7820 C.ar   99  TYR99      -0.0009
     80  CE1       53.3800   59.3760   42.2730 C.ar   99  TYR99       0.0417
     81  CE2       54.8470   57.5300   41.6230 C.ar   99  TYR99       0.0417
     82  CZ        53.5750   58.0510   41.9080 C.ar   99  TYR99       0.1957
     83  OH        52.4300   57.2930   41.8350 O.3    99  TYR99      -0.2866
     84  N         55.9830   61.3170   45.4790 N.am  100  SER100     -0.1950
     85  CA        54.8100   61.4830   46.3400 C.3   100  SER100      0.1924
     86  C         53.5620   61.6730   45.5350 C.2   100  SER100      0.2314
     87  O         53.3980   62.5820   44.7740 O.2   100  SER100     -0.2863
     88  CB        55.1120   62.6680   47.2820 C.3   100  SER100      0.2116
     89  OG        53.9620   63.3320   47.7640 O.3   100  SER100     -0.2180
     90  N         51.7100   65.1200   46.3030 N.3   103  LEU103     -0.1245
     91  CA        52.2280   66.3070   45.6270 C.3   103  LEU103      0.1561
     92  C         51.8190   66.5260   44.1080 C.2   103  LEU103      0.2260
     93  O         51.9100   67.6680   43.6010 O.2   103  LEU103     -0.2867
     94  CB        53.7400   66.4250   45.9460 C.3   103  LEU103      0.0270
     95  CG        54.1080   66.6220   47.4450 C.3   103  LEU103      0.0019
     96  CD1       55.6180   66.7660   47.5560 C.3   103  LEU103      0.0001
     97  CD2       53.4320   67.7960   48.1400 C.3   103  LEU103      0.0001
     98  N         51.0760   73.1990   46.5520 N.3   114  TRP114     -0.1241
     99  CA        51.1950   74.2870   45.5560 C.3   114  TRP114      0.1605
    100  C         49.9450   75.0810   45.2260 C.2   114  TRP114      0.2264
    101  O         49.4790   74.9650   44.1020 O.2   114  TRP114     -0.2867
    102  CB        51.7110   73.8220   44.1400 C.3   114  TRP114      0.0550
    103  CG        52.3330   72.4510   44.2180 C.ar  114  TRP114      0.0003
    104  CD1       51.7420   71.2710   43.8120 C.ar  114  TRP114      0.0946
    105  CD2       53.5740   72.0670   44.7910 C.ar  114  TRP114      0.0152
    106  NE1       52.5030   70.2240   44.0890 N.ar  114  TRP114     -0.2442
    107  CE2       53.6630   70.6590   44.6930 C.ar  114  TRP114      0.0810
    108  CE3       54.5940   72.7970   45.3990 C.ar  114  TRP114      0.0012
    109  CZ2       54.7730   69.9720   45.1800 C.ar  114  TRP114      0.0191
    110  CZ3       55.6970   72.0810   45.9030 C.ar  114  TRP114      0.0001
    111  CH2       55.7990   70.6780   45.7880 C.ar  114  TRP114      0.0015
    112  N         56.7500   57.9780   48.0130 N.3   150  CYS150     -0.1235
    113  CA        57.2210   58.7750   49.1270 C.3   150  CYS150      0.1677
    114  C         56.1970   59.4360   50.0840 C.2   150  CYS150      0.2270
    115  O         55.4830   60.3070   49.7750 O.2   150  CYS150     -0.2867
    116  CB        57.9960   59.9600   48.6420 C.3   150  CYS150      0.0956
    117  SG        59.0420   59.5420   47.3110 S.3   150  CYS150     -0.0801
    118  N         56.1850   62.1240   53.1350 N.3   152  MET152     -0.1245
    119  CA        56.8560   63.3930   53.4230 C.3   152  MET152      0.1570
    120  C         57.1040   63.6220   54.9450 C.2   152  MET152      0.2261
    121  O         56.2300   63.6010   55.8310 O.2   152  MET152     -0.2867
    122  CB        56.1070   64.5210   52.7800 C.3   152  MET152      0.0387
    123  CG        55.9070   64.4410   51.2750 C.3   152  MET152      0.0595
    124  SD        57.4370   64.2360   50.3470 S.3   152  MET152     -0.1393
    125  CE        58.1970   65.8200   50.6710 C.3   152  MET152      0.0692
    126  N         57.4000   66.1250   56.4890 N.3   154  HIS154     -0.1241
    127  CA        56.6820   67.1300   57.2620 C.3   154  HIS154      0.1621
    128  C         55.2410   66.9540   57.3850 C.2   154  HIS154      0.2264
    129  O         54.5180   67.8620   57.7300 O.2   154  HIS154     -0.2867
    130  CB        56.9850   68.5480   56.7710 C.3   154  HIS154      0.0745
    131  CG        56.4250   68.6640   55.3750 C.ar  154  HIS154      0.0817
    132  ND1       57.1040   68.3180   54.2540 N.ar  154  HIS154     -0.2268
    133  CD2       55.1630   69.1520   55.0070 C.ar  154  HIS154      0.1154
    134  CE1       56.3470   68.6010   53.1880 C.ar  154  HIS154      0.1986
    135  NE2       55.1410   69.0790   53.6400 N.ar  154  HIS154     -0.2212
    136  N         60.7830   60.9550   52.2440 N.3   180  ALA180     -0.1231
    137  CA        61.4840   62.1170   51.7350 C.3   180  ALA180      0.1694
    138  C         61.0370   63.4510   52.2360 C.2   180  ALA180      0.2593
    139  O         60.0290   63.5020   52.9110 O.2   180  ALA180     -0.2718
    140  CB        61.4390   62.1450   50.2290 C.3   180  ALA180      0.0304
    141  N         61.7590   64.4840   51.9140 N.am  181  GLY181     -0.1942
    142  CA        61.6040   65.8760   52.3210 C.3   181  GLY181      0.2014
    143  C         62.6740   66.4440   53.1850 C.2   181  GLY181      0.2638
    144  O         63.7790   66.1440   53.2840 O.2   181  GLY181     -0.2714
    145  N         62.2800   67.3960   54.0180 N.am  182  ASP182     -0.1971
    146  CA        63.3070   68.0410   54.8380 C.3   182  ASP182      0.1709
    147  C         63.8240   67.1530   55.9310 C.2   182  ASP182      0.2293
    148  O         63.4430   67.2800   57.0820 O.2   182  ASP182     -0.2864
    149  CB        62.7360   69.3440   55.4410 C.3   182  ASP182      0.1436
    150  CG        63.6560   70.1400   56.4360 C.2   182  ASP182      0.3671
    151  OD1       63.1520   71.1240   56.9970 O.co2 182  ASP182     -0.2456
    152  OD2       64.8240   69.8090   56.6440 O.co2 182  ASP182     -0.2456
    153  N         65.1590   58.5250   52.6860 N.3   211  HIS211     -0.1241
    154  CA        66.2760   59.5300   52.6630 C.3   211  HIS211      0.1621
    155  C         66.9060   59.9020   54.0450 C.2   211  HIS211      0.2264
    156  O         66.2820   60.3120   54.9800 O.2   211  HIS211     -0.2867
    157  CB        65.8830   60.8210   51.9850 C.3   211  HIS211      0.0745
    158  CG        65.3880   60.6980   50.5780 C.ar  211  HIS211      0.0817
    159  ND1       64.2700   60.0890   50.1740 N.ar  211  HIS211     -0.2268
    160  CD2       65.9940   61.2950   49.4740 C.ar  211  HIS211      0.1154
    161  CE1       64.2210   60.3350   48.8840 C.ar  211  HIS211      0.1986
    162  NE2       65.2620   61.0690   48.4190 N.ar  211  HIS211     -0.2212
    163  N         71.9100   62.6630   54.0950 N.3   214  GLU214     -0.1196
    164  CA        72.4150   63.4530   52.9670 C.3   214  GLU214      0.1783
    165  C         72.8240   64.8390   53.4750 C.2   214  GLU214      0.2306
    166  O         73.6880   65.5160   52.9560 O.2   214  GLU214     -0.2863
    167  CB        71.3040   63.5400   51.8780 C.2   214  GLU214      0.0071
    168  CG        71.3700   64.7980   50.9380 C.2   214  GLU214      0.0834
    169  CD        70.2070   64.9690   49.9810 C.2   214  GLU214      0.3877
    170  OE1       69.0520   64.7240   50.3930 O.co2 214  GLU214     -0.2406
    171  OE2       70.4330   65.3730   48.8320 O.co2 214  GLU214     -0.2406
    172  N         70.9170   58.4440   49.9990 N.3   235  HIS235     -0.1241
    173  CA        72.2160   58.9940   50.3990 C.3   235  HIS235      0.1621
    174  C         73.0660   58.2710   51.4790 C.2   235  HIS235      0.2264
    175  O         73.8780   57.4410   51.1980 O.2   235  HIS235     -0.2867
    176  CB        72.0480   60.4620   50.5330 C.3   235  HIS235      0.0745
    177  CG        71.2870   61.0450   49.3340 C.ar  235  HIS235      0.0817
    178  ND1       71.8740   61.4370   48.1800 N.ar  235  HIS235     -0.2268
    179  CD2       69.9590   61.4760   49.2650 C.ar  235  HIS235      0.1154
    180  CE1       70.9600   62.1300   47.4260 C.ar  235  HIS235      0.1986
    181  NE2       69.7830   62.1420   48.0910 N.ar  235  HIS235     -0.2212
    182  N         69.0840   61.3410   40.9940 N.3   292  ASP292     -0.1225
    183  CA        68.2080   62.1030   41.8480 C.3   292  ASP292      0.1805
    184  C         67.1080   62.9010   41.0960 C.2   292  ASP292      0.2597
    185  O         65.8940   62.6780   41.2190 O.2   292  ASP292     -0.2718
    186  CB        69.0630   62.8830   42.9060 C.3   292  ASP292      0.1424
    187  CG        68.4560   62.9090   44.3250 C.2   292  ASP292      0.3668
    188  OD1       69.0590   63.3430   45.3430 O.co2 292  ASP292     -0.2456
    189  OD2       67.3330   62.5010   44.3770 O.co2 292  ASP292     -0.2456
    190  N         67.6190   63.8300   40.3350 N.am  293  ASP293     -0.1974
    191  CA        66.7470   64.7890   39.7130 C.3   293  ASP293      0.1709
    192  C         67.4510   65.3920   38.4870 C.2   293  ASP293      0.2293
    193  O         68.0070   66.4690   38.5600 O.2   293  ASP293     -0.2864
    194  CB        66.2550   65.9770   40.6480 C.3   293  ASP293      0.1436
    195  CG        65.6060   65.7170   42.0310 C.2   293  ASP293      0.3671
    196  OD1       64.3790   65.8070   42.1960 O.co2 293  ASP293     -0.2456
    197  OD2       66.3370   65.4640   42.9630 O.co2 293  ASP293     -0.2456
    198  N         69.1050   69.3260   38.6480 N.3   297  PHE297     -0.1241
    199  CA        70.5690   69.2050   38.4990 C.3   297  PHE297      0.1605
    200  C         71.2040   69.3240   37.1000 C.2   297  PHE297      0.2264
    201  O         72.4220   69.2240   36.9960 O.2   297  PHE297     -0.2867
    202  CB        71.0300   67.9540   39.2320 C.3   297  PHE297      0.0534
    203  CG        70.5060   67.9340   40.6620 C.ar  297  PHE297     -0.0203
    204  CD1       70.3560   69.1570   41.4140 C.ar  297  PHE297     -0.0042
    205  CD2       70.1800   66.6920   41.2200 C.ar  297  PHE297     -0.0042
    206  CE1       69.8310   69.1260   42.7310 C.ar  297  PHE297     -0.0003
    207  CE2       69.6170   66.6360   42.4990 C.ar  297  PHE297     -0.0003
    208  CZ        69.4580   67.8370   43.2320 C.ar  297  PHE297     -0.0000
@<TRIPOS>BOND
     1   201   200    2
     2   200   199    1
     3    22    21    2
     4    21    20    1
     5   192   193    2
     6   192   191    1
     7   199   198    1
     8   199   202    1
     9   202   203    1
    10    20    19    1
    11     4     3    2
    12    11    12    1
    13    19    13   am
    14    14    13    2
    15    13    12    1
    16   191   190    1
    17   191   194    1
    18    12    15    1
    19     3     2    1
    20   190   184   am
    21   194   195    1
    22   203   205   ar
    23   203   204   ar
    24    15    16    1
    25   182   183    1
    26   184   185    2
    27   184   183    1
    28     1     2    1
    29   205   207   ar
    30   204   206   ar
    31     2     5    1
    32    81    79   ar
    33    81    82   ar
    34    79    77   ar
    35    83    82    1
    36    61    62    1
    37   183   186    1
    38    82    80   ar
    39    53    52    2
    40   195   196   ar
    41   195   197   ar
    42    77    78   ar
    43    77    76    1
    44    80    78   ar
    45    16    18   ar
    46    16    17   ar
    47     5     6    1
    48    64    63    2
    49   207   208   ar
    50    52    51    1
    51    76    73    1
    52   206   208   ar
    53   186   187    1
    54    51    50    1
    55    51    54    1
    56    63    62    1
    57    63    72   am
    58    62    65    1
    59    59    57   ar
    60    59    60   ar
    61    57    55   ar
    62    93    92    2
    63     6     8   ar
    64     6     7   ar
    65    60    58   ar
    66   104   106   ar
    67   104   103   ar
    68    72    73    1
    69    55    54    1
    70    55    56   ar
    71    73    74    1
    72   106   107   ar
    73   101   100    2
    74     8    10   ar
    75    92    91    1
    76   102   103    1
    77   102    99    1
    78   103   105   ar
    79   187   189   ar
    80   187   188   ar
    81    58    56   ar
    82    65    66    2
    83    66    67    1
    84   107   105   ar
    85   107   109   ar
    86    87    86    2
    87   105   108   ar
    88     7     9   ar
    89    74    84   am
    90    74    75    2
    91    39    41   ar
    92    39    37   ar
    93   109   111   ar
    94   100    99    1
    95   108   110   ar
    96    41    40   ar
    97    10     9   ar
    98    84    85    1
    99    34    33    2
   100    86    85    1
   101    99    98    1
   102    91    94    1
   103    91    90    1
   104    45    44    2
   105    67    68    1
   106    68    69    2
   107   111   110   ar
   108    37    36   ar
   109    94    95    1
   110    85    88    1
   111    44    43    1
   112    40    38   ar
   113    33    32    1
   114    33    42   am
   115    32    31    1
   116    32    35    1
   117    71    69    1
   118    36    38   ar
   119    36    35    1
   120    69    70    1
   121    88    89    1
   122   117   116    1
   123    43    42    1
   124    43    46    1
   125   180   181   ar
   126   180   178   ar
   127    95    96    1
   128    95    97    1
   129   112   113    1
   130   181   179   ar
   131   178   177   ar
   132   162   161   ar
   133   162   160   ar
   134    46    47    1
   135   116   113    1
   136   171   169   ar
   137   161   159   ar
   138    49    47    1
   139   113   114    1
   140   179   177   ar
   141   177   176    1
   142   160   158   ar
   143    47    48    1
   144   115   114    2
   145   169   170   ar
   146   169   168    1
   147   172   173    1
   148    26    25    2
   149   159   158   ar
   150   140   137    1
   151   124   125    1
   152   124   123    1
   153   173   176    1
   154   173   174    1
   155   158   157    1
   156   168   167    2
   157    25    24    1
   158   175   174    2
   159   123   122    1
   160    24    23    1
   161    24    27    1
   162   137   138    1
   163   137   136    1
   164   167   164    1
   165   141   138   am
   166   141   142    1
   167   157   154    1
   168   138   139    2
   169   142   143    1
   170    29    28    1
   171   154   153    1
   172   154   155    1
   173   122   119    1
   174   166   165    2
   175   164   165    1
   176   164   163    1
   177    27    28    1
   178   118   119    1
   179   143   144    2
   180   143   145   am
   181   134   135   ar
   182   134   132   ar
   183    28    30    1
   184   119   120    1
   185   135   133   ar
   186   145   146    1
   187   155   156    2
   188   132   131   ar
   189   146   149    1
   190   146   147    1
   191   120   121    2
   192   133   131   ar
   193   131   130    1
   194   149   150    1
   195   147   148    2
   196   150   152   ar
   197   150   151   ar
   198   126   127    1
   199   130   127    1
   200   127   128    1
   201   128   129    2
