@<TRIPOS>MOLECULE
tmp/1v7aA00.pdb
 187 180 0 0 0
SMALL
GASTEIGER

@<TRIPOS>ATOM
      1  N         55.3510   52.2010   26.3520 N.3    14  HIS14      -0.1241
      2  CA        54.8840   53.5820   26.1350 C.3    14  HIS14       0.1621
      3  C         54.4850   54.2710   27.4480 C.2    14  HIS14       0.2264
      4  O         53.6710   53.7270   28.1790 O.2    14  HIS14      -0.2867
      5  CB        53.6540   53.6270   25.2210 C.3    14  HIS14       0.0745
      6  CG        53.8350   53.0010   23.8360 C.ar   14  HIS14       0.0817
      7  ND1       53.7280   53.6700   22.6660 N.ar   14  HIS14      -0.2268
      8  CD2       54.0100   51.6510   23.5330 C.ar   14  HIS14       0.1154
      9  CE1       53.8210   52.7900   21.6590 C.ar   14  HIS14       0.1986
     10  NE2       53.9960   51.5290   22.1840 N.ar   14  HIS14      -0.2212
     11  N         52.5830   56.9020   28.2280 N.3    16  ASP16      -0.1225
     12  CA        51.1250   57.0250   28.1780 C.3    16  ASP16       0.1805
     13  C         50.2910   55.7380   28.0580 C.2    16  ASP16       0.2598
     14  O         49.0790   55.7030   28.1970 O.2    16  ASP16      -0.2718
     15  CB        50.7820   58.0290   27.0940 C.3    16  ASP16       0.1424
     16  CG        51.2350   57.5910   25.7020 C.2    16  ASP16       0.3668
     17  OD1       50.7130   58.1710   24.7580 O.co2  16  ASP16      -0.2456
     18  OD2       52.0660   56.6960   25.5360 O.co2  16  ASP16      -0.2456
     19  N         51.0180   54.6470   27.8190 N.am   17  GLY17      -0.1957
     20  CA        50.4490   53.3550   28.1840 C.3    17  GLY17       0.1869
     21  C         50.8630   52.8080   29.5700 C.2    17  GLY17       0.2309
     22  O         50.6230   51.6510   29.8910 O.2    17  GLY17      -0.2863
     23  N         40.3260   48.2500   16.1310 N.3    55  LEU55      -0.1245
     24  CA        41.1100   49.4890   16.2960 C.3    55  LEU55       0.1561
     25  C         40.3190   50.6920   16.9000 C.2    55  LEU55       0.2260
     26  O         40.7110   51.2070   17.9350 O.2    55  LEU55      -0.2867
     27  CB        41.9170   49.7140   14.9740 C.3    55  LEU55       0.0270
     28  CG        42.9960   50.8100   14.9040 C.3    55  LEU55       0.0019
     29  CD1       43.5940   50.9000   13.5070 C.3    55  LEU55       0.0001
     30  CD2       42.5180   52.2120   15.2210 C.3    55  LEU55       0.0001
     31  N         39.8830   49.9710   20.5100 N.3    58  PHE58      -0.1227
     32  CA        41.2270   50.2630   21.1130 C.3    58  PHE58       0.1736
     33  C         41.6920   51.7240   21.2180 C.2    58  PHE58       0.2595
     34  O         42.3380   52.1230   22.1780 O.2    58  PHE58      -0.2718
     35  CB        42.3430   49.4200   20.4220 C.3    58  PHE58       0.0547
     36  CG        43.8040   49.7330   20.8130 C.ar   58  PHE58      -0.0202
     37  CD1       44.4240   49.0010   21.8440 C.ar   58  PHE58      -0.0042
     38  CD2       44.5470   50.7040   20.1050 C.ar   58  PHE58      -0.0042
     39  CE1       45.7700   49.2220   22.1840 C.ar   58  PHE58      -0.0003
     40  CE2       45.8980   50.9320   20.4310 C.ar   58  PHE58      -0.0003
     41  CZ        46.4990   50.1940   21.4700 C.ar   58  PHE58      -0.0000
     42  N         41.3560   52.5280   20.2040 N.am   59  LEU59      -0.1980
     43  CA        41.7780   53.9220   20.3710 C.3    59  LEU59       0.1596
     44  C         40.8750   54.7570   21.2450 C.2    59  LEU59       0.2287
     45  O         41.2430   55.7590   21.8480 O.2    59  LEU59      -0.2864
     46  CB        41.8620   54.7180   19.0890 C.3    59  LEU59       0.0297
     47  CG        42.7170   54.1320   17.9930 C.3    59  LEU59       0.0022
     48  CD1       42.6780   55.1280   16.8260 C.3    59  LEU59       0.0001
     49  CD2       44.0920   53.7320   18.4740 C.3    59  LEU59       0.0001
     50  N         42.3780   55.4890   24.6780 N.3    62  PHE62      -0.1241
     51  CA        43.2770   56.6530   24.7740 C.3    62  PHE62       0.1605
     52  C         42.4670   57.9600   24.8530 C.2    62  PHE62       0.2264
     53  O         42.7230   58.8300   25.6760 O.2    62  PHE62      -0.2867
     54  CB        44.3030   56.6610   23.6280 C.3    62  PHE62       0.0534
     55  CG        45.3550   55.5620   23.6700 C.ar   62  PHE62      -0.0203
     56  CD1       45.2300   54.4600   22.7910 C.ar   62  PHE62      -0.0042
     57  CD2       46.4790   55.6760   24.5230 C.ar   62  PHE62      -0.0042
     58  CE1       46.2780   53.5340   22.6890 C.ar   62  PHE62      -0.0003
     59  CE2       47.5230   54.7310   24.4460 C.ar   62  PHE62      -0.0003
     60  CZ        47.4250   53.6860   23.4950 C.ar   62  PHE62      -0.0000
     61  N         57.2950   57.6630   23.7060 N.3    99  TYR99      -0.1227
     62  CA        56.0280   58.3770   23.6830 C.3    99  TYR99       0.1736
     63  C         56.0090   59.4450   22.5790 C.2    99  TYR99       0.2596
     64  O         57.0330   59.9350   22.1170 O.2    99  TYR99      -0.2718
     65  CB        55.7280   58.9740   25.0750 C.3    99  TYR99       0.0548
     66  CG        56.7000   60.0760   25.4140 C.ar   99  TYR99      -0.0200
     67  CD1       56.2820   61.3750   25.0850 C.ar   99  TYR99      -0.0009
     68  CD2       57.9680   59.7920   25.9690 C.ar   99  TYR99      -0.0009
     69  CE1       57.1980   62.4250   25.2350 C.ar   99  TYR99       0.0417
     70  CE2       58.8700   60.8610   26.1560 C.ar   99  TYR99       0.0417
     71  CZ        58.4800   62.1630   25.7580 C.ar   99  TYR99       0.1957
     72  OH        59.3310   63.2360   25.8700 O.3    99  TYR99      -0.2866
     73  N         54.7880   59.8290   22.2440 N.am  100  SER100     -0.1952
     74  CA        54.6090   61.0590   21.4600 C.3   100  SER100      0.1924
     75  C         54.3150   62.3490   22.2450 C.2   100  SER100      0.2314
     76  O         53.3350   62.4930   22.9760 O.2   100  SER100     -0.2863
     77  CB        53.4940   60.7970   20.4530 C.3   100  SER100      0.2116
     78  OG        53.1370   62.0200   19.8050 O.3   100  SER100     -0.2180
     79  N         51.0900   64.2680   21.4410 N.3   103  LEU103     -0.1245
     80  CA        49.9080   63.7340   22.1350 C.3   103  LEU103      0.1561
     81  C         49.8320   63.9650   23.6650 C.2   103  LEU103      0.2260
     82  O         48.9010   63.6140   24.3680 O.2   103  LEU103     -0.2867
     83  CB        49.7610   62.2500   21.7730 C.3   103  LEU103      0.0270
     84  CG        49.6340   61.9840   20.2660 C.3   103  LEU103      0.0019
     85  CD1       49.5010   60.4890   19.9830 C.3   103  LEU103      0.0001
     86  CD2       48.4160   62.7170   19.6720 C.3   103  LEU103      0.0001
     87  N         42.8200   64.8310   21.4390 N.3   114  TRP114     -0.1241
     88  CA        42.0040   64.3970   22.5860 C.3   114  TRP114      0.1605
     89  C         40.7700   65.2330   22.8740 C.2   114  TRP114      0.2264
     90  O         40.3800   65.4570   24.0170 O.2   114  TRP114     -0.2867
     91  CB        42.8020   64.2590   23.8920 C.3   114  TRP114      0.0550
     92  CG        44.1110   63.5610   23.6720 C.ar  114  TRP114      0.0003
     93  CD1       45.3670   64.1150   23.9420 C.ar  114  TRP114      0.0946
     94  CD2       44.3490   62.2450   23.1210 C.ar  114  TRP114      0.0152
     95  NE1       46.3400   63.2540   23.5970 N.ar  114  TRP114     -0.2442
     96  CE2       45.7780   62.0900   23.0840 C.ar  114  TRP114      0.0810
     97  CE3       43.5110   61.1990   22.6540 C.ar  114  TRP114      0.0012
     98  CZ2       46.3440   60.9080   22.5540 C.ar  114  TRP114      0.0191
     99  CZ3       44.0890   60.0210   22.1280 C.ar  114  TRP114      0.0001
    100  CH2       45.4920   59.8880   22.0730 C.ar  114  TRP114      0.0015
    101  N         58.2050   59.7060   19.5880 N.3   150  CYS150     -0.1235
    102  CA        57.4430   58.9930   18.5370 C.3   150  CYS150      0.1677
    103  C         56.7770   59.8410   17.4760 C.2   150  CYS150      0.2270
    104  O         55.7710   60.4730   17.7490 O.2   150  CYS150     -0.2867
    105  CB        56.2920   58.1760   19.1000 C.3   150  CYS150      0.0956
    106  SG        56.7030   56.7930   20.2150 S.3   150  CYS150     -0.0801
    107  N         53.9790   59.9640   14.5940 N.3   152  MET152     -0.1245
    108  CA        52.8270   59.0940   14.3500 C.3   152  MET152      0.1570
    109  C         52.5600   58.8730   12.8570 C.2   152  MET152      0.2261
    110  O         52.6660   59.7800   12.0420 O.2   152  MET152     -0.2867
    111  CB        51.5600   59.7070   14.9890 C.3   152  MET152      0.0387
    112  CG        51.6040   59.9260   16.5010 C.3   152  MET152      0.0595
    113  SD        51.8440   58.4370   17.4480 S.3   152  MET152     -0.1393
    114  CE        50.2040   57.8450   17.0830 C.3   152  MET152      0.0692
    115  N         49.9170   58.2700   10.9300 N.3   154  HIS154     -0.1241
    116  CA        48.9450   59.1120   10.2310 C.3   154  HIS154      0.1621
    117  C         49.2720   60.6100   10.1910 C.2   154  HIS154      0.2264
    118  O         48.5200   61.4180    9.6700 O.2   154  HIS154     -0.2867
    119  CB        47.5400   58.8970   10.7940 C.3   154  HIS154      0.0745
    120  CG        47.4460   59.6020   12.1270 C.ar  154  HIS154      0.0817
    121  ND1       48.0620   59.1850   13.2290 N.ar  154  HIS154     -0.2268
    122  CD2       46.8150   60.8130   12.4130 C.ar  154  HIS154      0.1154
    123  CE1       47.8560   60.0890   14.2110 C.ar  154  HIS154      0.1986
    124  NE2       47.0890   61.0960   13.7080 N.ar  154  HIS154     -0.2212
    125  N         55.1140   55.4010   15.2210 N.3   180  ALA180     -0.1231
    126  CA        54.0460   54.7150   15.9150 C.3   180  ALA180      0.1694
    127  C         52.6480   55.0690   15.4690 C.2   180  ALA180      0.2593
    128  O         52.3830   56.0350   14.7690 O.2   180  ALA180     -0.2718
    129  CB        54.1780   54.8650   17.4380 C.3   180  ALA180      0.0304
    130  N         51.7860   54.1740   15.9440 N.am  181  GLY181     -0.1942
    131  CA        50.3490   54.0780   15.6810 C.3   181  GLY181      0.2014
    132  C         49.8930   53.7750   14.2540 C.2   181  GLY181      0.2638
    133  O         49.9950   54.6330   13.3880 O.2   181  GLY181     -0.2714
    134  N         49.4110   52.5250   14.0110 N.am  182  ASP182     -0.1971
    135  CA        48.7470   52.2400   12.7390 C.3   182  ASP182      0.1709
    136  C         49.5740   52.1920   11.4330 C.2   182  ASP182      0.2293
    137  O         49.3300   52.8020   10.3950 O.2   182  ASP182     -0.2864
    138  CB        47.4650   53.0390   12.5210 C.3   182  ASP182      0.1436
    139  CG        46.5250   52.4180   11.5010 C.2   182  ASP182      0.3671
    140  OD1       46.7450   51.3060   11.0460 O.co2 182  ASP182     -0.2456
    141  OD2       45.5640   53.0900   11.1660 O.co2 182  ASP182     -0.2456
    142  N         57.7560   50.9510   14.6980 N.3   211  HIS211     -0.1241
    143  CA        56.7960   49.8480   14.8620 C.3   211  HIS211      0.1621
    144  C         56.5570   48.6680   13.8980 C.2   211  HIS211      0.2264
    145  O         56.5050   47.5830   14.3900 O.2   211  HIS211     -0.2867
    146  CB        55.4480   50.3060   15.4000 C.3   211  HIS211      0.0745
    147  CG        55.4690   50.5640   16.8780 C.ar  211  HIS211      0.0817
    148  ND1       56.2060   51.5140   17.4040 N.ar  211  HIS211     -0.2268
    149  CD2       54.6950   50.0120   17.9020 C.ar  211  HIS211      0.1154
    150  CE1       55.9290   51.6050   18.7330 C.ar  211  HIS211      0.1986
    151  NE2       54.9810   50.6630   19.0770 N.ar  211  HIS211     -0.2212
    152  N         53.8510   44.2480   13.9150 N.3   214  GLU214     -0.1245
    153  CA        52.7920   43.7150   14.8050 C.3   214  GLU214      0.1567
    154  C         51.4590   43.4140   14.1090 C.2   214  GLU214      0.2260
    155  O         50.8440   42.3990   14.3300 O.2   214  GLU214     -0.2867
    156  CB        52.5970   44.7320   15.9070 C.3   214  GLU214      0.0388
    157  CG        51.3230   44.6870   16.7440 C.3   214  GLU214      0.1160
    158  CD        51.3120   45.9530   17.5710 C.2   214  GLU214      0.3649
    159  OE1       51.4530   47.0190   16.9970 O.co2 214  GLU214     -0.2457
    160  OE2       51.1710   45.8790   18.7900 O.co2 214  GLU214     -0.2457
    161  N         55.0910   46.8410   26.4980 N.3   292  ASP292     -0.1225
    162  CA        54.2850   47.7130   25.6630 C.3   292  ASP292      0.1805
    163  C         53.4190   48.7820   26.3290 C.2   292  ASP292      0.2597
    164  O         53.6710   49.9690   26.1770 O.2   292  ASP292     -0.2718
    165  CB        53.4970   46.8520   24.7090 C.3   292  ASP292      0.1424
    166  CG        53.3100   47.4480   23.3560 C.2   292  ASP292      0.3668
    167  OD1       52.7340   46.7480   22.5400 O.co2 292  ASP292     -0.2456
    168  OD2       53.7220   48.5860   23.1300 O.co2 292  ASP292     -0.2456
    169  N         52.3600   48.3270   27.0230 N.am  293  ASP293     -0.1974
    170  CA        51.3970   49.2420   27.6950 C.3   293  ASP293      0.1709
    171  C         50.7320   48.6120   28.9260 C.2   293  ASP293      0.2293
    172  O         49.6540   48.0330   28.8180 O.2   293  ASP293     -0.2864
    173  CB        50.2070   49.6030   26.7920 C.3   293  ASP293      0.1436
    174  CG        50.5980   50.1380   25.4340 C.2   293  ASP293      0.3671
    175  OD1       50.5900   51.3490   25.2710 O.co2 293  ASP293     -0.2456
    176  OD2       50.8790   49.3430   24.5410 O.co2 293  ASP293     -0.2456
    177  N         47.1680   46.8220   29.0380 N.3   297  PHE297     -0.1241
    178  CA        47.2040   45.3620   29.0020 C.3   297  PHE297      0.1605
    179  C         47.0560   44.6840   30.3790 C.2   297  PHE297      0.2264
    180  O         47.2500   43.4840   30.5280 O.2   297  PHE297     -0.2867
    181  CB        48.4630   44.9010   28.2230 C.3   297  PHE297      0.0534
    182  CG        48.5130   45.4510   26.8070 C.ar  297  PHE297     -0.0203
    183  CD1       47.3860   45.4270   25.9500 C.ar  297  PHE297     -0.0042
    184  CD2       49.7430   45.9770   26.3360 C.ar  297  PHE297     -0.0042
    185  CE1       47.4870   45.8790   24.6190 C.ar  297  PHE297     -0.0003
    186  CE2       49.8490   46.4410   25.0070 C.ar  297  PHE297     -0.0003
    187  CZ        48.7220   46.3770   24.1590 C.ar  297  PHE297     -0.0000
@<TRIPOS>BOND
     1   118   117    2
     2   117   116    1
     3   116   119    1
     4   116   115    1
     5   137   136    2
     6   119   120    1
     7   140   139   ar
     8   141   139   ar
     9   136   135    1
    10   139   138    1
    11   110   109    2
    12   120   122   ar
    13   120   121   ar
    14   122   124   ar
    15   138   135    1
    16   135   134    1
    17   109   108    1
    18   121   123   ar
    19   133   132    2
    20    29    28    1
    21   124   123   ar
    22   144   145    2
    23   144   143    1
    24   152   153    1
    25   134   132   am
    26   154   155    2
    27   154   153    1
    28   132   131    1
    29   108   107    1
    30   108   111    1
    31   142   143    1
    32   128   127    2
    33   153   156    1
    34   143   146    1
    35    28    27    1
    36    28    30    1
    37    27    24    1
    38   111   112    1
    39   125   126    1
    40   146   147    1
    41   127   126    1
    42   127   130   am
    43   131   130    1
    44   156   157    1
    45   126   129    1
    46    23    24    1
    47    24    25    1
    48   112   113    1
    49   157   158    1
    50    48    47    1
    51   147   148   ar
    52   147   149   ar
    53    25    26    2
    54   159   158   ar
    55   114   113    1
    56   148   150   ar
    57   103   104    2
    58   103   102    1
    59   158   160   ar
    60   149   151   ar
    61    47    49    1
    62    47    46    1
    63   102   105    1
    64   102   101    1
    65   150   151   ar
    66    46    43    1
    67   105   106    1
    68    86    84    1
    69    78    77    1
    70    85    84    1
    71    38    40   ar
    72    38    36   ar
    73    42    43    1
    74    42    33   am
    75    84    83    1
    76    43    44    1
    77    35    36    1
    78    35    32    1
    79    40    41   ar
    80    77    74    1
    81    31    32    1
    82    36    37   ar
    83    32    33    1
    84    33    34    2
    85    44    45    2
    86    87    88    1
    87    79    80    1
    88    74    73    1
    89    74    75    1
    90    41    39   ar
    91     9    10   ar
    92     9     7   ar
    93    83    80    1
    94    37    39   ar
    95   100    99   ar
    96   100    98   ar
    97    64    63    2
    98    99    97   ar
    99    80    81    1
   100    10     8   ar
   101    73    63   am
   102    75    76    2
   103   167   166   ar
   104    98    96   ar
   105    63    62    1
   106    88    89    1
   107    88    91    1
   108    97    94   ar
   109     7     6   ar
   110    58    56   ar
   111    58    60   ar
   112    56    55   ar
   113    89    90    2
   114    96    94   ar
   115    96    95   ar
   116    94    92   ar
   117   168   166   ar
   118   166   165    1
   119    60    59   ar
   120     8     6   ar
   121    95    93   ar
   122    54    55    1
   123    54    51    1
   124    81    82    2
   125    55    57   ar
   126    92    91    1
   127    92    93   ar
   128    62    61    1
   129    62    65    1
   130     6     5    1
   131   187   185   ar
   132   187   186   ar
   133    59    57   ar
   134   176   174   ar
   135   185   183   ar
   136    50    51    1
   137   165   162    1
   138    17    16   ar
   139    51    52    1
   140    52    53    2
   141   186   184   ar
   142    65    66    1
   143    67    69   ar
   144    67    66   ar
   145     5     2    1
   146    69    71   ar
   147   175   174   ar
   148    66    68   ar
   149   174   173    1
   150    18    16   ar
   151   162   163    1
   152   162   161    1
   153    16    15    1
   154    71    72    1
   155    71    70   ar
   156   183   182   ar
   157    68    70   ar
   158     2     1    1
   159     2     3    1
   160   164   163    2
   161   163   169   am
   162   184   182   ar
   163   173   170    1
   164   182   181    1
   165   169   170    1
   166    15    12    1
   167     3     4    2
   168   170   171    1
   169    19    13   am
   170    19    20    1
   171    13    12    1
   172    13    14    2
   173    12    11    1
   174    20    21    1
   175   181   178    1
   176   172   171    2
   177   178   177    1
   178   178   179    1
   179    21    22    2
   180   179   180    2
