@<TRIPOS>MOLECULE
tmp/1v7cB00.pdb
 207 197 0 0 0
SMALL
GASTEIGER

@<TRIPOS>ATOM
      1  N         30.3120   25.7440   50.1460 N.3    59  SER59      -0.1202
      2  CA        29.3830   25.2790   49.1140 C.3    59  SER59       0.2020
      3  C         28.0240   24.9910   49.7330 C.2    59  SER59       0.2619
      4  O         27.9090   24.8610   50.9480 O.2    59  SER59      -0.2717
      5  CB        29.9150   24.0190   48.4130 C.3    59  SER59       0.2103
      6  OG        29.4390   22.8350   49.0260 O.3    59  SER59      -0.2182
      7  N         27.0000   24.8900   48.8910 N.am   60  PHE60      -0.1961
      8  CA        25.6380   24.6270   49.3560 C.3    60  PHE60       0.1771
      9  C         25.4630   23.2400   49.9780 C.2    60  PHE60       0.2619
     10  O         24.4570   22.9700   50.6440 O.2    60  PHE60      -0.2715
     11  CB        24.6470   24.7890   48.1940 C.3    60  PHE60       0.0574
     12  CG        24.7000   23.6720   47.1770 C.ar   60  PHE60      -0.0200
     13  CD1       23.8450   22.5720   47.2800 C.ar   60  PHE60      -0.0042
     14  CD2       25.5960   23.7240   46.1110 C.ar   60  PHE60      -0.0042
     15  CE1       23.8790   21.5380   46.3300 C.ar   60  PHE60      -0.0003
     16  CE2       25.6400   22.6950   45.1550 C.ar   60  PHE60      -0.0003
     17  CZ        24.7760   21.6000   45.2660 C.ar   60  PHE60      -0.0000
     18  N         26.4390   22.3620   49.7680 N.am   61  LYS61      -0.1977
     19  CA        26.3470   21.0090   50.3020 C.3    61  LYS61       0.1596
     20  C         26.1100   20.9780   51.8080 C.2    61  LYS61       0.2287
     21  O         25.4880   20.0450   52.3170 O.2    61  LYS61      -0.2864
     22  CB        27.6100   20.2100   49.9640 C.3    61  LYS61       0.0298
     23  CG        27.8950   20.1150   48.4760 C.3    61  LYS61       0.0038
     24  CD        26.8110   19.3620   47.7200 C.3    61  LYS61       0.0206
     25  CE        27.1220   19.3380   46.2300 C.3    61  LYS61       0.1093
     26  NZ        26.1310   18.5710   45.4190 N.3    61  LYS61      -0.1314
     27  N         30.6980    9.6250   47.3540 N.3    83  ALA83      -0.1231
     28  CA        31.5580    9.8040   46.1850 C.3    83  ALA83       0.1694
     29  C         31.3910   11.2990   45.9220 C.2    83  ALA83       0.2593
     30  O         30.3380   11.8600   46.2370 O.2    83  ALA83      -0.2718
     31  CB        31.0480    8.9820   44.9970 C.3    83  ALA83       0.0304
     32  N         32.3970   11.9510   45.3460 N.am   84  SER84      -0.1938
     33  CA        32.2870   13.3890   45.1400 C.3    84  SER84       0.2055
     34  C         33.2300   13.9970   44.1140 C.2    84  SER84       0.2643
     35  O         34.3030   13.4570   43.8380 O.2    84  SER84      -0.2714
     36  CB        32.5020   14.0950   46.4900 C.3    84  SER84       0.2130
     37  OG        32.4810   15.5030   46.3630 O.3    84  SER84      -0.2179
     38  N         32.8130   15.1270   43.5440 N.am   85  THR85      -0.1950
     39  CA        33.6490   15.8540   42.6000 C.3    85  THR85       0.1897
     40  C         34.4200   16.8850   43.4210 C.2    85  THR85       0.2313
     41  O         35.1240   17.7330   42.8760 O.2    85  THR85      -0.2863
     42  CB        32.8270   16.5860   41.5260 C.3    85  THR85       0.1794
     43  OG1       31.8410   17.4140   42.1550 O.3    85  THR85      -0.2208
     44  CG2       32.1620   15.5860   40.5900 C.3    85  THR85       0.0378
     45  N         33.1140   19.0350   46.4830 N.3    87  ASN87      -0.1225
     46  CA        32.3530   19.7230   47.5200 C.3    87  ASN87       0.1785
     47  C         31.5650   18.8900   48.5250 C.2    87  ASN87       0.2597
     48  O         31.6090   19.1740   49.7180 O.2    87  ASN87      -0.2718
     49  CB        31.4450   20.7720   46.8810 C.3    87  ASN87       0.1169
     50  CG        32.2360   21.9120   46.2550 C.2    87  ASN87       0.2627
     51  OD1       33.2320   22.3640   46.8200 O.2    87  ASN87      -0.2716
     52  ND2       31.7960   22.3820   45.0970 N.am   87  ASN87      -0.0877
     53  N         30.8380   17.8810   48.0620 N.am   88  THR88      -0.1953
     54  CA        30.0770   17.0460   48.9830 C.3    88  THR88       0.1897
     55  C         31.0480   16.3580   49.9440 C.2    88  THR88       0.2313
     56  O         30.7740   16.2360   51.1360 O.2    88  THR88      -0.2863
     57  CB        29.2430   16.0000   48.2170 C.3    88  THR88       0.1794
     58  OG1       28.2210   16.6740   47.4760 O.3    88  THR88      -0.2208
     59  CG2       28.5910   15.0030   49.1770 C.3    88  THR88       0.0378
     60  N         33.7350   10.6430   38.3520 N.3   134  PHE134     -0.1241
     61  CA        32.7620   10.7070   39.4340 C.3   134  PHE134      0.1605
     62  C         31.7130    9.6030   39.3300 C.2   134  PHE134      0.2264
     63  O         31.4100    8.9450   40.3210 O.2   134  PHE134     -0.2867
     64  CB        32.0400   12.0560   39.4580 C.3   134  PHE134      0.0534
     65  CG        30.8300   12.0520   40.3380 C.ar  134  PHE134     -0.0203
     66  CD1       30.9620   12.1230   41.7190 C.ar  134  PHE134     -0.0042
     67  CD2       29.5630   11.8530   39.7930 C.ar  134  PHE134     -0.0042
     68  CE1       29.8460   11.9860   42.5460 C.ar  134  PHE134     -0.0003
     69  CE2       28.4430   11.7160   40.6130 C.ar  134  PHE134     -0.0003
     70  CZ        28.5850   11.7800   41.9900 C.ar  134  PHE134     -0.0000
     71  N         25.4620   10.7160   50.0480 N.3   154  ASN154     -0.1225
     72  CA        25.3280   11.2710   48.7060 C.3   154  ASN154      0.1785
     73  C         23.8600   11.6980   48.5680 C.2   154  ASN154      0.2597
     74  O         23.0110   11.2560   49.3420 O.2   154  ASN154     -0.2718
     75  CB        25.6790   10.2290   47.6390 C.3   154  ASN154      0.1169
     76  CG        27.1690   10.1720   47.3530 C.2   154  ASN154      0.2627
     77  OD1       27.8410    9.1890   47.6660 O.2   154  ASN154     -0.2716
     78  ND2       27.6960   11.2450   46.7640 N.am  154  ASN154     -0.0877
     79  N         23.5720   12.5460   47.5830 N.am  155  SER155     -0.1952
     80  CA        22.2200   13.0660   47.3560 C.3   155  SER155      0.1924
     81  C         21.0980   12.0240   47.2520 C.2   155  SER155      0.2314
     82  O         19.9140   12.3720   47.3280 O.2   155  SER155     -0.2863
     83  CB        22.2140   13.9390   46.1030 C.3   155  SER155      0.2116
     84  OG        22.7320   13.2180   45.0010 O.3   155  SER155     -0.2180
     85  N         19.5530   14.6680   52.2850 N.3   160  ARG160     -0.1245
     86  CA        20.3540   15.6870   51.6120 C.3   160  ARG160      0.1563
     87  C         19.4310   16.6820   50.9050 C.2   160  ARG160      0.2260
     88  O         19.6250   17.8950   50.9950 O.2   160  ARG160     -0.2867
     89  CB        21.2960   15.0370   50.5940 C.3   160  ARG160      0.0307
     90  CG        22.5910   14.4730   51.1910 C.3   160  ARG160      0.0489
     91  CD        23.5820   15.5870   51.4820 C.3   160  ARG160      0.2205
     92  NE        23.8010   16.4050   50.2920 N.pl3 160  ARG160     -0.0865
     93  CZ        24.4660   16.0020   49.2110 C.cat 160  ARG160      0.5346
     94  NH1       25.0030   14.7900   49.1610 N.pl3 160  ARG160      0.1354
     95  NH2       24.5550   16.8010   48.1580 N.pl3 160  ARG160      0.1354
     96  N         18.7710   20.6720   51.5400 N.3   164  GLN164     -0.1245
     97  CA        18.9900   21.6150   50.4560 C.3   164  GLN164      0.1566
     98  C         17.7490   22.3980   49.9950 C.2   164  GLN164      0.2260
     99  O         17.8890   23.4750   49.4220 O.2   164  GLN164     -0.2867
    100  CB        19.6550   20.8830   49.2770 C.3   164  GLN164      0.0367
    101  CG        21.0270   20.3170   49.6610 C.3   164  GLN164      0.0905
    102  CD        21.6990   19.4900   48.5750 C.2   164  GLN164      0.2608
    103  OE1       22.6250   18.7270   48.8610 O.2   164  GLN164     -0.2717
    104  NE2       21.2530   19.6420   47.3300 N.am  164  GLN164     -0.0878
    105  N         23.2820   25.4540   38.4810 N.3   185  PRO185     -0.2102
    106  CA        23.9980   24.4610   37.6770 C.3   185  PRO185      0.1504
    107  C         23.3980   23.0920   37.9770 C.2   185  PRO185      0.2576
    108  O         22.8300   22.8840   39.0550 O.2   185  PRO185     -0.2718
    109  CB        25.4370   24.5530   38.1930 C.3   185  PRO185      0.0282
    110  CG        25.5020   25.8820   38.9100 C.3   185  PRO185      0.0208
    111  CD        24.1500   25.9840   39.5450 C.3   185  PRO185      0.0893
    112  N         23.5220   22.1660   37.0340 N.am  186  VAL186     -0.1966
    113  CA        23.0160   20.8190   37.2400 C.3   186  VAL186      0.1727
    114  C         24.0980   19.7880   36.9240 C.2   186  VAL186      0.2617
    115  O         24.5180   19.6390   35.7710 O.2   186  VAL186     -0.2715
    116  CB        21.7760   20.5350   36.3660 C.3   186  VAL186      0.0290
    117  CG1       21.3090   19.0900   36.5690 C.3   186  VAL186      0.0023
    118  CG2       20.6650   21.5110   36.7220 C.3   186  VAL186      0.0023
    119  N         24.5470   19.0930   37.9670 N.am  187  GLY187     -0.1940
    120  CA        25.5630   18.0690   37.8150 C.3   187  GLY187      0.2014
    121  C         24.9580   16.7070   38.1030 C.2   187  GLY187      0.2639
    122  O         24.6490   15.9540   37.1770 O.2   187  GLY187     -0.2714
    123  N         24.7820   16.3870   39.3830 N.am  188  ASN188     -0.1958
    124  CA        24.1920   15.1100   39.7560 C.3   188  ASN188      0.1819
    125  C         22.6760   15.2430   39.9460 C.2   188  ASN188      0.2621
    126  O         21.9900   14.2690   40.2570 O.2   188  ASN188     -0.2715
    127  CB        24.8610   14.5470   41.0100 C.3   188  ASN188      0.1195
    128  CG        24.7390   13.0340   41.0940 C.2   188  ASN188      0.2630
    129  OD1       24.7950   12.3380   40.0740 O.2   188  ASN188     -0.2716
    130  ND2       24.5820   12.5170   42.3030 N.am  188  ASN188     -0.0877
    131  N         22.1800   16.4680   39.7620 N.am  189  ALA189     -0.1963
    132  CA        20.7510   16.7970   39.8080 C.3   189  ALA189      0.1728
    133  C         20.0280   16.9210   41.1480 C.2   189  ALA189      0.2617
    134  O         18.8270   17.2010   41.1780 O.2   189  ALA189     -0.2715
    135  CB        19.9820   15.8230   38.9050 C.3   189  ALA189      0.0334
    136  N         20.7410   16.7350   42.2490 N.am  190  GLY190     -0.1940
    137  CA        20.0960   16.8390   43.5400 C.3   190  GLY190      0.2014
    138  C         19.5890   18.2310   43.8880 C.2   190  GLY190      0.2639
    139  O         18.4900   18.3790   44.4220 O.2   190  GLY190     -0.2714
    140  N         20.3740   19.2560   43.5660 N.am  191  ASN191     -0.1958
    141  CA        20.0030   20.6260   43.9030 C.3   191  ASN191      0.1819
    142  C         18.7540   21.1760   43.2170 C.2   191  ASN191      0.2621
    143  O         17.8960   21.7550   43.8820 O.2   191  ASN191     -0.2715
    144  CB        21.1940   21.5660   43.6710 C.3   191  ASN191      0.1195
    145  CG        21.2910   22.6510   44.7340 C.2   191  ASN191      0.2630
    146  OD1       20.7170   22.5240   45.8130 O.2   191  ASN191     -0.2716
    147  ND2       22.0330   23.7150   44.4390 N.am  191  ASN191     -0.0877
    148  N         18.6430   21.0170   41.9020 N.am  192  ILE192     -0.1977
    149  CA        17.4620   21.5230   41.2170 C.3   192  ILE192      0.1596
    150  C         16.2180   20.7980   41.7410 C.2   192  ILE192      0.2287
    151  O         15.1490   21.3930   41.8580 O.2   192  ILE192     -0.2864
    152  CB        17.5630   21.3690   39.6710 C.3   192  ILE192      0.0276
    153  CG1       16.2990   21.9490   39.0190 C.3   192  ILE192      0.0022
    154  CG2       17.7800   19.9080   39.2880 C.3   192  ILE192      0.0022
    155  CD1       16.3520   22.0210   37.5090 C.3   192  ILE192      0.0001
    156  N         33.3970   20.3410   39.0560 N.3   240  ALA240     -0.1231
    157  CA        32.3430   20.0860   40.0360 C.3   240  ALA240      0.1694
    158  C         31.1620   19.3680   39.3730 C.2   240  ALA240      0.2591
    159  O         30.5130   18.5180   39.9960 O.2   240  ALA240     -0.2718
    160  CB        31.8800   21.3970   40.6600 C.3   240  ALA240      0.0304
    161  N         30.8900   19.6990   38.1100 N.am  241  ILE241     -0.1980
    162  CA        29.7830   19.0710   37.3860 C.3   241  ILE241      0.1595
    163  C         30.2130   18.1660   36.2250 C.2   241  ILE241      0.2287
    164  O         29.4670   17.9680   35.2590 O.2   241  ILE241     -0.2864
    165  CB        28.7820   20.1290   36.8640 C.3   241  ILE241      0.0276
    166  CG1       29.4930   21.1290   35.9490 C.3   241  ILE241      0.0022
    167  CG2       28.1430   20.8560   38.0460 C.3   241  ILE241      0.0022
    168  CD1       28.5680   22.2010   35.3940 C.3   241  ILE241      0.0001
    169  N         29.9050   15.3860   35.4100 N.3   243  ILE243     -0.1245
    170  CA        29.0540   14.2400   35.7120 C.3   243  ILE243      0.1561
    171  C         28.2390   13.8130   34.4940 C.2   243  ILE243      0.2260
    172  O         27.5650   14.6300   33.8680 O.2   243  ILE243     -0.2867
    173  CB        28.1050   14.5860   36.8900 C.3   243  ILE243      0.0252
    174  CG1       28.9430   15.0480   38.0920 C.3   243  ILE243      0.0019
    175  CG2       27.2550   13.3810   37.2620 C.3   243  ILE243      0.0019
    176  CD1       28.1410   15.4930   39.3010 C.3   243  ILE243      0.0001
    177  N         33.0960   29.4890   41.9880 N.3   287  GLU287     -0.1245
    178  CA        33.8410   28.5760   41.1250 C.3   287  GLU287      0.1567
    179  C         33.1880   28.4570   39.7550 C.2   287  GLU287      0.2260
    180  O         32.0070   28.7770   39.5850 O.2   287  GLU287     -0.2867
    181  CB        34.0120   27.1920   41.7730 C.3   287  GLU287      0.0388
    182  CG        32.7510   26.4090   42.0730 C.3   287  GLU287      0.1160
    183  CD        33.0820   25.0480   42.6530 C.2   287  GLU287      0.3649
    184  OE1       33.4960   24.1640   41.8770 O.co2 287  GLU287     -0.2457
    185  OE2       32.9490   24.8690   43.8840 O.co2 287  GLU287     -0.2457
    186  N         31.8700   26.0580   37.9420 N.3   289  ALA289     -0.1231
    187  CA        30.5730   25.3770   37.9020 C.3   289  ALA289      0.1694
    188  C         29.4340   26.3150   38.3010 C.2   289  ALA289      0.2592
    189  O         28.3900   26.3450   37.6540 O.2   289  ALA289     -0.2718
    190  CB        30.5830   24.1540   38.8170 C.3   289  ALA289      0.0304
    191  N         29.6380   27.0750   39.3710 N.am  290  SER290     -0.1952
    192  CA        28.6240   28.0100   39.8470 C.3   290  SER290      0.1924
    193  C         28.3310   29.0590   38.7850 C.2   290  SER290      0.2314
    194  O         27.1830   29.4570   38.5950 O.2   290  SER290     -0.2863
    195  CB        29.0970   28.7010   41.1270 C.3   290  SER290      0.2116
    196  OG        29.5060   27.7420   42.0790 O.3   290  SER290     -0.2180
    197  N         26.5660   28.2250   43.6490 N.3   317  THR317     -0.1203
    198  CA        26.9130   27.0440   44.4330 C.3   317  THR317      0.1994
    199  C         28.1910   26.9080   45.2630 C.2   317  THR317      0.2618
    200  O         28.1510   26.3150   46.3450 O.2   317  THR317     -0.2717
    201  CB        26.8090   25.7990   43.5460 C.3   317  THR317      0.1784
    202  OG1       27.4990   26.0340   42.3130 O.3   317  THR317     -0.2211
    203  CG2       25.3490   25.4890   43.2570 C.3   317  THR317      0.0376
    204  N         29.3160   27.4130   44.7700 N.am  318  GLY318     -0.1956
    205  CA        30.5500   27.2900   45.5290 C.3   318  GLY318      0.1869
    206  C         31.4520   28.5040   45.3990 C.2   318  GLY318      0.2309
    207  O         31.4600   29.1530   44.3570 O.2   318  GLY318     -0.2863
@<TRIPOS>BOND
     1   172   171    2
     2   171   170    1
     3   164   163    2
     4   168   166    1
     5   169   170    1
     6   170   173    1
     7   115   114    2
     8   166   165    1
     9   163   162    1
    10   116   117    1
    11   116   118    1
    12   116   113    1
    13   165   162    1
    14   165   167    1
    15   173   175    1
    16   173   174    1
    17   114   113    1
    18   114   119   am
    19   112   113    1
    20   112   107   am
    21   122   121    2
    22   162   161    1
    23   155   153    1
    24   189   188    2
    25   106   107    1
    26   106   109    1
    27   106   105    1
    28   120   119    1
    29   120   121    1
    30   187   186    1
    31   187   188    1
    32   187   190    1
    33   107   108    2
    34   174   176    1
    35   121   123   am
    36   161   158   am
    37   109   110    1
    38   188   191   am
    39    60    61    1
    40   105   111    1
    41   194   193    2
    42   193   192    1
    43   135   132    1
    44   110   111    1
    45   153   152    1
    46   156   157    1
    47   154   152    1
    48    62    61    1
    49    62    63    2
    50   191   192    1
    51   158   159    2
    52   158   157    1
    53   123   124    1
    54    61    64    1
    55    64    65    1
    56   180   179    2
    57   152   149    1
    58   179   178    1
    59   124   125    1
    60   124   127    1
    61   131   132    1
    62   131   125   am
    63    67    65   ar
    64    67    69   ar
    65   132   133    1
    66   192   195    1
    67   125   126    2
    68   157   160    1
    69   129   128    2
    70    65    66   ar
    71    44    42    1
    72    69    70   ar
    73   127   128    1
    74   128   130   am
    75   178   181    1
    76   178   177    1
    77   195   196    1
    78   133   134    2
    79   133   136   am
    80   149   150    1
    81   149   148    1
    82    42    43    1
    83    42    39    1
    84    66    68   ar
    85   150   151    2
    86   181   182    1
    87   184   183   ar
    88   148   142   am
    89    70    68   ar
    90   182   183    1
    91   136   137    1
    92   202   201    1
    93    39    40    1
    94    39    38    1
    95   183   185   ar
    96    41    40    2
    97   142   143    2
    98   142   141    1
    99   203   201    1
   100   137   138    1
   101    38    34   am
   102   201   198    1
   103   140   138   am
   104   140   141    1
   105   197   198    1
   106   144   141    1
   107   144   145    1
   108    35    34    2
   109   138   139    2
   110    34    33    1
   111   207   206    2
   112   198   199    1
   113   147   145   am
   114   145   146    2
   115   204   199   am
   116   204   205    1
   117    31    28    1
   118    84    83    1
   119    52    50   am
   120    33    32    1
   121    33    36    1
   122    16    17   ar
   123    16    14   ar
   124   199   200    2
   125    17    15   ar
   126    32    29   am
   127   206   205    1
   128    26    25    1
   129    29    28    1
   130    29    30    2
   131    83    80    1
   132    14    12   ar
   133    28    27    1
   134    25    24    1
   135    50    51    2
   136    50    49    1
   137    15    13   ar
   138    37    36    1
   139    45    46    1
   140    78    76   am
   141    49    46    1
   142    12    13   ar
   143    12    11    1
   144    81    82    2
   145    81    80    1
   146   104   102   am
   147    76    75    1
   148    76    77    2
   149    80    79    1
   150    58    57    1
   151    46    47    1
   152    79    73   am
   153    75    72    1
   154    24    23    1
   155    53    47   am
   156    53    54    1
   157    95    93    1
   158    11     8    1
   159    57    54    1
   160    57    59    1
   161     5     6    1
   162     5     2    1
   163    23    22    1
   164    47    48    2
   165    73    72    1
   166    73    74    2
   167   102   103    2
   168   102   101    1
   169    72    71    1
   170     7     8    1
   171     7     3   am
   172    54    55    1
   173     2     3    1
   174     2     1    1
   175    94    93    1
   176    93    92    2
   177   100   101    1
   178   100    97    1
   179     8     9    1
   180    99    98    2
   181     3     4    2
   182    18     9   am
   183    18    19    1
   184    55    56    2
   185    22    19    1
   186     9    10    2
   187    98    97    1
   188    92    91    1
   189    19    20    1
   190    97    96    1
   191    89    90    1
   192    89    86    1
   193    87    88    2
   194    87    86    1
   195    90    91    1
   196    86    85    1
   197    20    21    2
