@<TRIPOS>MOLECULE
tmp/1v7uA01.pdb
 157 149 0 0 0
SMALL
GASTEIGER

@<TRIPOS>ATOM
      1  N         40.5790   35.7410   60.2990 N.3    35  ALA35      -0.1245
      2  CA        41.5290   34.6520   60.0510 C.3    35  ALA35       0.1562
      3  C         41.0890   33.3990   60.8170 C.2    35  ALA35       0.2260
      4  O         41.1780   32.3120   60.2580 O.2    35  ALA35      -0.2867
      5  CB        42.9550   35.0520   60.4520 C.3    35  ALA35       0.0290
      6  N         38.6190   31.8160   58.8040 N.3    38  VAL38      -0.1231
      7  CA        39.1330   31.1020   57.6340 C.3    38  VAL38       0.1692
      8  C         39.6320   29.7110   58.0520 C.2    38  VAL38       0.2591
      9  O         39.3930   28.7430   57.3310 O.2    38  VAL38      -0.2718
     10  CB        40.3390   31.8130   56.9740 C.3    38  VAL38       0.0266
     11  CG1       41.0850   30.8140   55.9520 C.3    38  VAL38       0.0020
     12  CG2       39.8660   33.1250   56.3210 C.3    38  VAL38       0.0020
     13  N         40.3220   29.6360   59.2030 N.am   39  ARG39      -0.1980
     14  CA        40.8630   28.3550   59.7070 C.3    39  ARG39       0.1597
     15  C         39.7100   27.3900   59.9260 C.2    39  ARG39       0.2287
     16  O         39.7670   26.2550   59.4860 O.2    39  ARG39      -0.2864
     17  CB        41.6960   28.5630   61.0080 C.3    39  ARG39       0.0334
     18  CG        42.0930   27.3260   61.8430 C.3    39  ARG39       0.0492
     19  CD        43.3320   27.6090   62.8030 C.3    39  ARG39       0.2205
     20  NE        43.2830   28.9010   63.5450 N.pl3  39  ARG39      -0.0865
     21  CZ        44.2640   29.8260   63.5830 C.cat  39  ARG39       0.5346
     22  NH1       45.4010   29.6230   62.9350 N.pl3  39  ARG39       0.1354
     23  NH2       44.1020   30.9960   64.2200 N.pl3  39  ARG39       0.1354
     24  N         38.0530   26.3140   56.4240 N.3    42  VAL42      -0.1231
     25  CA        38.9400   25.4140   55.7180 C.3    42  VAL42       0.1692
     26  C         38.8300   24.0270   56.3620 C.2    42  VAL42       0.2592
     27  O         38.5370   23.0380   55.6850 O.2    42  VAL42      -0.2718
     28  CB        40.3940   25.9380   55.7240 C.3    42  VAL42       0.0266
     29  CG1       41.3260   24.8910   55.1000 C.3    42  VAL42       0.0020
     30  CG2       40.4660   27.2410   54.9040 C.3    42  VAL42       0.0020
     31  N         38.9760   23.9920   57.6800 N.am   43  SER43      -0.1952
     32  CA        38.8700   22.7430   58.4450 C.3    43  SER43       0.1924
     33  C         37.4840   22.0620   58.2240 C.2    43  SER43       0.2314
     34  O         37.3950   20.8310   57.9610 O.2    43  SER43      -0.2863
     35  CB        39.1970   23.0500   59.9240 C.3    43  SER43       0.2116
     36  OG        38.5210   22.2050   60.8230 O.3    43  SER43      -0.2180
     37  N         48.4470   37.9620   54.6270 N.3    77  PHE77      -0.1241
     38  CA        48.6750   37.0100   53.5600 C.3    77  PHE77       0.1605
     39  C         50.0870   36.4670   53.7740 C.2    77  PHE77       0.2264
     40  O         50.3020   35.2280   53.7870 O.2    77  PHE77      -0.2867
     41  CB        48.5540   37.7440   52.2140 C.3    77  PHE77       0.0534
     42  CG        48.7440   36.8700   51.0000 C.ar   77  PHE77      -0.0203
     43  CD1       48.2270   35.5810   50.9570 C.ar   77  PHE77      -0.0042
     44  CD2       49.3550   37.3810   49.8560 C.ar   77  PHE77      -0.0042
     45  CE1       48.3090   34.8110   49.7850 C.ar   77  PHE77      -0.0003
     46  CE2       49.4380   36.6150   48.6910 C.ar   77  PHE77      -0.0003
     47  CZ        48.9080   35.3260   48.6650 C.ar   77  PHE77      -0.0000
     48  N         51.7190   36.5590   56.4840 N.3    79  TRP79      -0.1227
     49  CA        51.6800   35.7490   57.7020 C.3    79  TRP79       0.1737
     50  C         51.0780   34.3360   57.4540 C.2    79  TRP79       0.2595
     51  O         51.5990   33.3200   57.9400 O.2    79  TRP79      -0.2718
     52  CB        50.9000   36.4630   58.7920 C.3    79  TRP79       0.0564
     53  CG        50.7020   35.6200   59.9570 C.ar   79  TRP79       0.0003
     54  CD1       51.5890   35.4020   60.9960 C.ar   79  TRP79       0.0946
     55  CD2       49.6300   34.7130   60.1540 C.ar   79  TRP79       0.0152
     56  NE1       51.1250   34.3950   61.8090 N.ar   79  TRP79      -0.2442
     57  CE2       49.9250   33.9550   61.3180 C.ar   79  TRP79       0.0810
     58  CE3       48.4500   34.4520   59.4580 C.ar   79  TRP79       0.0012
     59  CZ2       49.0790   32.9530   61.7940 C.ar   79  TRP79       0.0191
     60  CZ3       47.5970   33.4300   59.9320 C.ar   79  TRP79       0.0001
     61  CH2       47.9280   32.6970   61.0920 C.ar   79  TRP79       0.0015
     62  N         49.9890   34.2510   56.7080 N.am   80  ALA80      -0.1966
     63  CA        49.4210   32.9240   56.4720 C.3    80  ALA80       0.1728
     64  C         50.3860   31.9930   55.7450 C.2    80  ALA80       0.2616
     65  O         50.5310   30.8510   56.1180 O.2    80  ALA80      -0.2715
     66  CB        48.1550   33.0350   55.6660 C.3    80  ALA80       0.0334
     67  N         51.0360   32.5030   54.7080 N.am   81  LEU81      -0.1977
     68  CA        51.9270   31.7080   53.9260 C.3    81  LEU81       0.1596
     69  C         53.1110   31.2340   54.7430 C.2    81  LEU81       0.2287
     70  O         53.5160   30.0700   54.6400 O.2    81  LEU81      -0.2864
     71  CB        52.4210   32.5060   52.7300 C.3    81  LEU81       0.0297
     72  CG        51.4210   32.8860   51.6230 C.3    81  LEU81       0.0022
     73  CD1       52.1030   33.9010   50.6620 C.3    81  LEU81       0.0001
     74  CD2       50.9200   31.6420   50.8910 C.3    81  LEU81       0.0001
     75  N         50.9410   29.1140   58.1440 N.3    84  GLU84      -0.1231
     76  CA        49.8300   28.1700   58.1350 C.3    84  GLU84       0.1699
     77  C         49.9970   27.0870   57.0590 C.2    84  GLU84       0.2592
     78  O         49.2990   26.1020   57.0630 O.2    84  GLU84      -0.2718
     79  CB        48.4900   28.8930   57.9380 C.3    84  GLU84       0.0402
     80  CG        48.1040   29.8510   59.0210 C.3    84  GLU84       0.1161
     81  CD        47.6770   29.1810   60.3030 C.2    84  GLU84       0.3649
     82  OE1       47.8650   29.8200   61.3660 O.co2  84  GLU84      -0.2457
     83  OE2       47.1430   28.0480   60.2630 O.co2  84  GLU84      -0.2457
     84  N         50.9690   27.2520   56.1700 N.am   85  VAL85      -0.1980
     85  CA        51.1990   26.2720   55.0920 C.3    85  VAL85       0.1595
     86  C         51.5220   24.8450   55.5630 C.2    85  VAL85       0.2287
     87  O         51.0000   23.8840   55.0120 O.2    85  VAL85      -0.2864
     88  CB        52.3250   26.7700   54.1280 C.3    85  VAL85       0.0276
     89  CG1       52.5560   25.7540   52.9710 C.3    85  VAL85       0.0022
     90  CG2       51.9350   28.0800   53.5650 C.3    85  VAL85       0.0022
     91  N         50.5120   23.4480   58.0760 N.3    87  SER87      -0.1202
     92  CA        49.2930   22.7570   58.5380 C.3    87  SER87       0.2020
     93  C         48.4030   22.3170   57.3520 C.2    87  SER87       0.2618
     94  O         47.7860   21.2430   57.3750 O.2    87  SER87      -0.2717
     95  CB        48.5370   23.6200   59.5090 C.3    87  SER87       0.2103
     96  OG        49.4440   24.0750   60.5030 O.3    87  SER87      -0.2182
     97  N         48.3460   23.1330   56.3050 N.am   88  LEU88      -0.1979
     98  CA        47.5800   22.7070   55.1390 C.3    88  LEU88       0.1596
     99  C         48.1500   21.3580   54.6110 C.2    88  LEU88       0.2287
    100  O         47.4250   20.4220   54.2760 O.2    88  LEU88      -0.2864
    101  CB        47.7120   23.7330   54.0650 C.3    88  LEU88       0.0297
    102  CG        46.9830   25.0220   54.3700 C.3    88  LEU88       0.0022
    103  CD1       47.3340   25.9560   53.2080 C.3    88  LEU88       0.0001
    104  CD2       45.4360   24.7590   54.5490 C.3    88  LEU88       0.0001
    105  N         50.0260   19.1530   56.2800 N.3    90  ARG90      -0.1231
    106  CA        49.7260   18.0660   57.1870 C.3    90  ARG90       0.1694
    107  C         48.2410   17.6530   57.0650 C.2    90  ARG90       0.2592
    108  O         47.8260   16.6220   57.5940 O.2    90  ARG90      -0.2718
    109  CB        50.1050   18.4870   58.6130 C.3    90  ARG90       0.0321
    110  CG        51.6470   18.6680   58.7770 C.3    90  ARG90       0.0489
    111  CD        52.0780   19.1830   60.1720 C.3    90  ARG90       0.2205
    112  NE        51.6650   18.2440   61.2180 N.pl3  90  ARG90      -0.0865
    113  CZ        52.3770   17.1920   61.6630 C.cat  90  ARG90       0.5346
    114  NH1       53.5950   16.8930   61.1740 N.pl3  90  ARG90       0.1354
    115  NH2       51.8550   16.4150   62.6180 N.pl3  90  ARG90       0.1354
    116  N         47.4170   18.4630   56.4050 N.am   91  HIS91      -0.1976
    117  CA        46.0270   18.0670   56.1930 C.3    91  HIS91       0.1656
    118  C         45.8060   17.5630   54.7790 C.2    91  HIS91       0.2291
    119  O         44.6740   17.3320   54.3770 O.2    91  HIS91      -0.2864
    120  CB        45.0360   19.2000   56.5090 C.3    91  HIS91       0.0771
    121  CG        44.7910   19.3730   57.9770 C.ar   91  HIS91       0.0820
    122  ND1       45.7060   19.9730   58.8210 N.ar   91  HIS91      -0.2267
    123  CD2       43.7580   18.9690   58.7630 C.ar   91  HIS91       0.1154
    124  CE1       45.2460   19.9360   60.0590 C.ar   91  HIS91       0.1986
    125  NE2       44.0670   19.3320   60.0520 N.ar   91  HIS91      -0.2212
    126  N         47.2490   23.6800   48.0520 N.3    95  LEU95      -0.1245
    127  CA        47.0960   25.1280   47.9890 C.3    95  LEU95       0.1561
    128  C         47.4280   25.7870   46.7030 C.2    95  LEU95       0.2260
    129  O         48.5470   25.5990   46.1770 O.2    95  LEU95      -0.2867
    130  CB        47.9470   25.8000   49.0730 C.3    95  LEU95       0.0270
    131  CG        47.9230   27.3280   49.2170 C.3    95  LEU95       0.0019
    132  CD1       46.5910   27.7760   49.9260 C.3    95  LEU95       0.0001
    133  CD2       49.1440   27.7910   50.0770 C.3    95  LEU95       0.0001
    134  N         47.0690   29.7570   44.6620 N.3    97  ILE97      -0.1245
    135  CA        46.7710   31.1430   44.8160 C.3    97  ILE97       0.1561
    136  C         46.2670   31.5050   43.4340 C.2    97  ILE97       0.2260
    137  O         46.8070   31.0380   42.4610 O.2    97  ILE97      -0.2867
    138  CB        48.0430   31.9630   45.1790 C.3    97  ILE97       0.0252
    139  CG1       48.6130   31.4850   46.4950 C.3    97  ILE97       0.0019
    140  CG2       47.7810   33.4240   45.0970 C.3    97  ILE97       0.0019
    141  CD1       47.6760   31.3130   47.5590 C.3    97  ILE97       0.0001
    142  N         42.5800   24.2510   48.2340 N.3   127  LEU127     -0.1245
    143  CA        42.2940   25.5460   48.7870 C.3   127  LEU127      0.1561
    144  C         42.8050   26.5670   47.8340 C.2   127  LEU127      0.2260
    145  O         44.0040   26.6740   47.6130 O.2   127  LEU127     -0.2867
    146  CB        42.9990   25.7210   50.1220 C.3   127  LEU127      0.0270
    147  CG        42.7470   27.0820   50.7760 C.3   127  LEU127      0.0019
    148  CD1       41.2640   27.3210   51.0560 C.3   127  LEU127      0.0001
    149  CD2       43.5320   27.0880   52.0310 C.3   127  LEU127      0.0001
    150  N         43.2300   30.4190   47.1760 N.3   129  ILE129     -0.1245
    151  CA        43.1960   31.7580   47.7590 C.3   129  ILE129      0.1561
    152  C         43.3090   32.7550   46.5880 C.2   129  ILE129      0.2260
    153  O         44.3020   32.7930   45.8530 O.2   129  ILE129     -0.2867
    154  CB        44.3440   31.9950   48.7820 C.3   129  ILE129      0.0252
    155  CG1       44.3590   30.8930   49.8650 C.3   129  ILE129      0.0019
    156  CG2       44.1410   33.3430   49.4660 C.3   129  ILE129      0.0019
    157  CD1       43.2720   30.9170   50.8240 C.3   129  ILE129      0.0001
@<TRIPOS>BOND
     1   137   136    2
     2   136   135    1
     3   134   135    1
     4   135   138    1
     5   140   138    1
     6   138   139    1
     7   153   152    2
     8   129   128    2
     9   139   141    1
    10   152   151    1
    11   128   127    1
    12   150   151    1
    13   145   144    2
    14   151   154    1
    15   144   143    1
    16   127   126    1
    17   127   130    1
    18   142   143    1
    19    47    46   ar
    20    47    45   ar
    21    46    44   ar
    22   154   156    1
    23   154   155    1
    24   143   146    1
    25   130   131    1
    26   131   132    1
    27   131   133    1
    28    45    43   ar
    29    44    42   ar
    30   155   157    1
    31   146   147    1
    32    73    72    1
    33   147   148    1
    34   147   149    1
    35    74    72    1
    36    43    42   ar
    37    42    41    1
    38    72    71    1
    39    41    38    1
    40    71    68    1
    41    89    88    1
    42   103   102    1
    43    38    39    1
    44    38    37    1
    45    90    88    1
    46    39    40    2
    47    68    67    1
    48    68    69    1
    49   101   102    1
    50   101    98    1
    51    88    85    1
    52   100    99    2
    53   102   104    1
    54   119   118    2
    55    99    98    1
    56    70    69    2
    57    67    64   am
    58   118   117    1
    59    30    28    1
    60    87    86    2
    61    85    86    1
    62    85    84    1
    63    29    28    1
    64    98    97    1
    65    66    63    1
    66    27    26    2
    67    25    28    1
    68    25    26    1
    69    25    24    1
    70    64    65    2
    71    64    63    1
    72    11    10    1
    73    84    77   am
    74   117   116    1
    75   117   120    1
    76   105   106    1
    77    97    93   am
    78    12    10    1
    79    26    31   am
    80   116   107   am
    81    63    62    1
    82    48    49    1
    83   120   121    1
    84    62    50   am
    85    10     7    1
    86    77    78    2
    87    77    76    1
    88   107   106    1
    89   107   108    2
    90   106   109    1
    91     9     8    2
    92    93    94    2
    93    93    92    1
    94    50    49    1
    95    50    51    2
    96     7     8    1
    97     7     6    1
    98    31    32    1
    99    49    52    1
   100    79    76    1
   101    79    80    1
   102    34    33    2
   103   121   123   ar
   104   121   122   ar
   105     8    13   am
   106    91    92    1
   107    76    75    1
   108    33    32    1
   109    32    35    1
   110    92    95    1
   111   109   110    1
   112   123   125   ar
   113   110   111    1
   114    52    53    1
   115   122   124   ar
   116    80    81    1
   117    13    14    1
   118    58    60   ar
   119    58    55   ar
   120    16    15    2
   121    95    96    1
   122    14    15    1
   123    14    17    1
   124    35    36    1
   125    60    61   ar
   126    53    55   ar
   127    53    54   ar
   128     2     1    1
   129     2     5    1
   130     2     3    1
   131   125   124   ar
   132    55    57   ar
   133   111   112    1
   134     4     3    2
   135    83    81   ar
   136    81    82   ar
   137    54    56   ar
   138    17    18    1
   139    61    59   ar
   140   114   113    1
   141   112   113    2
   142    57    59   ar
   143    57    56   ar
   144   113   115    1
   145    18    19    1
   146    19    20    1
   147    22    21    1
   148    20    21    2
   149    21    23    1
