@<TRIPOS>MOLECULE
tmp/1v7uA00.pdb
 190 184 0 0 0
SMALL
GASTEIGER

@<TRIPOS>ATOM
      1  N         34.2390   36.5580   51.8410 N.3    13  MET13      -0.1230
      2  CA        34.3570   36.7880   53.2860 C.3    13  MET13       0.1702
      3  C         34.2540   38.2560   53.7400 C.2    13  MET13       0.2592
      4  O         35.1760   38.7840   54.2880 O.2    13  MET13      -0.2718
      5  CB        35.6580   36.2260   53.8100 C.3    13  MET13       0.0401
      6  CG        35.9400   34.7710   53.3160 C.3    13  MET13       0.0596
      7  SD        37.6090   34.1350   53.7060 S.3    13  MET13      -0.1393
      8  CE        38.5900   35.1350   52.6410 C.3    13  MET13       0.0692
      9  N         33.0850   38.8560   53.6050 N.am   14  ASP14      -0.1960
     10  CA        32.8730   40.2390   53.9600 C.3    14  ASP14       0.1840
     11  C         32.2550   40.3570   55.3850 C.2    14  ASP14       0.2623
     12  O         31.6210   39.4110   55.8740 O.2    14  ASP14      -0.2715
     13  CB        31.9650   40.8100   52.8450 C.3    14  ASP14       0.1450
     14  CG        31.7510   42.3120   52.9270 C.2    14  ASP14       0.3671
     15  OD1       32.6340   42.9830   53.5340 O.co2  14  ASP14      -0.2456
     16  OD2       30.6930   42.7990   52.3770 O.co2  14  ASP14      -0.2456
     17  N         32.4310   41.5360   56.0110 N.am   15  GLY15      -0.1940
     18  CA        31.9240   41.8330   57.3440 C.3    15  GLY15       0.2014
     19  C         32.9320   42.0530   58.5020 C.2    15  GLY15       0.2639
     20  O         32.5660   42.5200   59.5940 O.2    15  GLY15      -0.2714
     21  N         34.2020   41.7400   58.2570 N.am   16  ASN16      -0.1958
     22  CA        35.2470   41.8130   59.2830 C.3    16  ASN16       0.1819
     23  C         35.3150   43.1810   59.9210 C.2    16  ASN16       0.2622
     24  O         35.3140   43.2800   61.1610 O.2    16  ASN16      -0.2715
     25  CB        36.5870   41.4180   58.6710 C.3    16  ASN16       0.1195
     26  CG        36.5420   40.0070   58.0180 C.2    16  ASN16       0.2630
     27  OD1       36.3770   39.0170   58.7030 O.2    16  ASN16      -0.2716
     28  ND2       36.6570   39.9410   56.6970 N.am   16  ASN16      -0.0877
     29  N         35.3540   44.2390   59.0880 N.am   17  GLY17      -0.1940
     30  CA        35.4400   45.6130   59.6270 C.3    17  GLY17       0.2014
     31  C         34.2340   45.9650   60.4970 C.2    17  GLY17       0.2638
     32  O         34.3380   46.3510   61.6870 O.2    17  GLY17      -0.2714
     33  N         33.0700   45.7550   59.9040 N.am   18  ARG18      -0.1977
     34  CA        31.8020   46.0240   60.5540 C.3    18  ARG18       0.1597
     35  C         31.7410   45.2070   61.8730 C.2    18  ARG18       0.2287
     36  O         31.2320   45.6470   62.9420 O.2    18  ARG18      -0.2864
     37  CB        30.7280   45.6020   59.5690 C.3    18  ARG18       0.0334
     38  CG        29.4020   46.3300   59.5970 C.3    18  ARG18       0.0492
     39  CD        28.5000   45.7900   58.4340 C.3    18  ARG18       0.2205
     40  NE        29.2750   45.6720   57.1820 N.pl3  18  ARG18      -0.0865
     41  CZ        29.2260   44.6410   56.3200 C.cat  18  ARG18       0.5346
     42  NH1       28.4430   43.6100   56.5410 N.pl3  18  ARG18       0.1354
     43  NH2       29.9590   44.6520   55.2130 N.pl3  18  ARG18       0.1354
     44  N         39.8600   48.2360   63.0210 N.3    27  ARG27      -0.1245
     45  CA        39.8690   47.3950   61.8670 C.3    27  ARG27       0.1563
     46  C         40.6430   46.1190   62.1050 C.2    27  ARG27       0.2260
     47  O         40.1680   45.0330   61.7760 O.2    27  ARG27      -0.2867
     48  CB        40.4810   48.1790   60.6970 C.3    27  ARG27       0.0307
     49  CG        39.9220   47.8820   59.3340 C.3    27  ARG27       0.0489
     50  CD        39.8640   49.1850   58.4660 C.3    27  ARG27       0.2205
     51  NE        38.5580   49.3120   57.7980 N.pl3  27  ARG27      -0.0865
     52  CZ        37.9890   48.3240   57.1100 C.cat  27  ARG27       0.5346
     53  NH1       38.6170   47.1630   56.9930 N.pl3  27  ARG27       0.1354
     54  NH2       36.7740   48.4650   56.5950 N.pl3  27  ARG27       0.1354
     55  N         40.2030   41.6000   61.4950 N.3    31  HIS31      -0.1241
     56  CA        41.0680   40.7910   60.6190 C.3    31  HIS31       0.1621
     57  C         41.5900   39.6120   61.4240 C.2    31  HIS31       0.2264
     58  O         41.7170   38.5160   60.9170 O.2    31  HIS31      -0.2867
     59  CB        42.2220   41.6280   60.0850 C.3    31  HIS31       0.0745
     60  CG        41.8040   42.6600   59.0740 C.ar   31  HIS31       0.0817
     61  ND1       42.6290   43.6990   58.6830 N.ar   31  HIS31      -0.2268
     62  CD2       40.6890   42.7640   58.3120 C.ar   31  HIS31       0.1154
     63  CE1       42.0440   44.3890   57.7180 C.ar   31  HIS31       0.1986
     64  NE2       40.8670   43.8430   57.4720 N.ar   31  HIS31      -0.2212
     65  N         38.7580   37.3180   61.5550 N.3    34  GLY34      -0.1210
     66  CA        38.4270   36.7910   60.2650 C.3    34  GLY34       0.1956
     67  C         39.3190   35.6180   59.9370 C.2    34  GLY34       0.2611
     68  O         38.8890   34.6220   59.3650 O.2    34  GLY34      -0.2717
     69  N         40.5790   35.7410   60.2990 N.am   35  ALA35      -0.1979
     70  CA        41.5290   34.6520   60.0510 C.3    35  ALA35       0.1597
     71  C         41.0890   33.3990   60.8170 C.2    35  ALA35       0.2287
     72  O         41.1780   32.3120   60.2580 O.2    35  ALA35      -0.2864
     73  CB        42.9550   35.0520   60.4520 C.3    35  ALA35       0.0319
     74  N         38.6190   31.8160   58.8040 N.3    38  VAL38      -0.1245
     75  CA        39.1330   31.1020   57.6340 C.3    38  VAL38       0.1561
     76  C         39.6320   29.7110   58.0520 C.2    38  VAL38       0.2260
     77  O         39.3930   28.7430   57.3310 O.2    38  VAL38      -0.2867
     78  CB        40.3390   31.8130   56.9740 C.3    38  VAL38       0.0252
     79  CG1       41.0850   30.8140   55.9520 C.3    38  VAL38       0.0019
     80  CG2       39.8660   33.1250   56.3210 C.3    38  VAL38       0.0019
     81  N         38.4430   31.0110   48.3050 N.3    55  LEU55      -0.1231
     82  CA        38.2190   32.1560   49.1820 C.3    55  LEU55       0.1693
     83  C         38.6770   33.4830   48.6050 C.2    55  LEU55       0.2592
     84  O         39.8220   33.6220   48.1930 O.2    55  LEU55      -0.2718
     85  CB        38.8930   31.9090   50.5440 C.3    55  LEU55       0.0284
     86  CG        38.5010   30.7000   51.4190 C.3    55  LEU55       0.0019
     87  CD1       39.4080   30.6740   52.7320 C.3    55  LEU55       0.0001
     88  CD2       36.9460   30.7010   51.7960 C.3    55  LEU55       0.0001
     89  N         37.7740   34.4550   48.6170 N.am   56  TYR56      -0.1962
     90  CA        38.0850   35.7370   48.0620 C.3    56  TYR56       0.1771
     91  C         38.8310   36.5940   49.0690 C.2    56  TYR56       0.2619
     92  O         38.2410   37.3480   49.8510 O.2    56  TYR56      -0.2715
     93  CB        36.8330   36.4150   47.6000 C.3    56  TYR56       0.0574
     94  CG        37.0790   37.5550   46.6720 C.ar   56  TYR56      -0.0198
     95  CD1       36.0670   38.4860   46.4360 C.ar   56  TYR56      -0.0009
     96  CD2       38.2750   37.6610   45.9390 C.ar   56  TYR56      -0.0009
     97  CE1       36.2210   39.4730   45.4790 C.ar   56  TYR56       0.0417
     98  CE2       38.4510   38.6510   44.9960 C.ar   56  TYR56       0.0417
     99  CZ        37.4060   39.5450   44.7550 C.ar   56  TYR56       0.1957
    100  OH        37.4330   40.4450   43.6940 O.3    56  TYR56      -0.2866
    101  N         40.1520   36.4490   48.9870 N.am   57  ALA57      -0.1977
    102  CA        41.1230   37.1050   49.8310 C.3    57  ALA57       0.1597
    103  C         41.4700   38.5740   49.5490 C.2    57  ALA57       0.2287
    104  O         41.4210   39.3780   50.4780 O.2    57  ALA57      -0.2864
    105  CB        42.4090   36.2860   49.8300 C.3    57  ALA57       0.0319
    106  N         40.9610   46.1750   45.3120 N.3    62  ASN62      -0.1240
    107  CA        41.3550   46.5210   46.6730 C.3    62  ASN62       0.1653
    108  C         42.6530   47.2840   46.7420 C.2    62  ASN62       0.2266
    109  O         42.9130   48.0250   47.6890 O.2    62  ASN62      -0.2867
    110  CB        41.4280   45.2550   47.5430 C.3    62  ASN62       0.1155
    111  CG        40.0480   44.5890   47.7280 C.2    62  ASN62       0.2627
    112  OD1       39.0040   45.1890   47.4010 O.2    62  ASN62      -0.2716
    113  ND2       40.0360   43.3490   48.2540 N.am   62  ASN62      -0.0877
    114  N         45.1520   49.6270   55.2030 N.3    69  GLU69      -0.1245
    115  CA        44.2380   48.5410   54.8460 C.3    69  GLU69       0.1567
    116  C         44.8680   47.5270   53.8330 C.2    69  GLU69       0.2260
    117  O         44.6130   46.3140   53.9170 O.2    69  GLU69      -0.2867
    118  CB        42.9470   49.1490   54.2790 C.3    69  GLU69       0.0388
    119  CG        41.7620   48.2030   54.1210 C.3    69  GLU69       0.1160
    120  CD        41.3390   47.5670   55.4350 C.2    69  GLU69       0.3649
    121  OE1       41.3450   48.2800   56.4620 O.co2  69  GLU69      -0.2457
    122  OE2       40.9930   46.3580   55.4380 O.co2  69  GLU69      -0.2457
    123  N         46.2680   43.5880   54.9870 N.3    73  LEU73      -0.1245
    124  CA        45.8720   42.4240   54.2330 C.3    73  LEU73       0.1561
    125  C         47.1180   41.7200   53.7260 C.2    73  LEU73       0.2260
    126  O         47.2690   40.5130   53.9480 O.2    73  LEU73      -0.2867
    127  CB        44.9760   42.8360   53.0940 C.3    73  LEU73       0.0270
    128  CG        43.6560   43.2580   53.7280 C.3    73  LEU73       0.0019
    129  CD1       42.7450   43.9730   52.7120 C.3    73  LEU73       0.0001
    130  CD2       42.9830   42.0000   54.3420 C.3    73  LEU73       0.0001
    131  N         48.8320   40.0280   56.4610 N.3    76  LEU76      -0.1231
    132  CA        48.1820   38.8260   56.9090 C.3    76  LEU76       0.1693
    133  C         48.4090   37.6330   55.9230 C.2    76  LEU76       0.2592
    134  O         48.5890   36.4840   56.3330 O.2    76  LEU76      -0.2718
    135  CB        46.7200   39.1810   57.1180 C.3    76  LEU76       0.0284
    136  CG        45.7540   38.1500   57.6690 C.3    76  LEU76       0.0019
    137  CD1       46.2150   37.6000   59.0530 C.3    76  LEU76       0.0001
    138  CD2       44.3860   38.8340   57.7350 C.3    76  LEU76       0.0001
    139  N         48.4470   37.9620   54.6270 N.am   77  PHE77      -0.1976
    140  CA        48.6750   37.0100   53.5600 C.3    77  PHE77       0.1639
    141  C         50.0870   36.4670   53.7740 C.2    77  PHE77       0.2290
    142  O         50.3020   35.2280   53.7870 O.2    77  PHE77      -0.2864
    143  CB        48.5540   37.7440   52.2140 C.3    77  PHE77       0.0560
    144  CG        48.7440   36.8700   51.0000 C.ar   77  PHE77      -0.0200
    145  CD1       48.2270   35.5810   50.9570 C.ar   77  PHE77      -0.0042
    146  CD2       49.3550   37.3810   49.8560 C.ar   77  PHE77      -0.0042
    147  CE1       48.3090   34.8110   49.7850 C.ar   77  PHE77      -0.0003
    148  CE2       49.4380   36.6150   48.6910 C.ar   77  PHE77      -0.0003
    149  CZ        48.9080   35.3260   48.6650 C.ar   77  PHE77      -0.0000
    150  N         51.7190   36.5590   56.4840 N.3    79  TRP79      -0.1227
    151  CA        51.6800   35.7490   57.7020 C.3    79  TRP79       0.1737
    152  C         51.0780   34.3360   57.4540 C.2    79  TRP79       0.2595
    153  O         51.5990   33.3200   57.9400 O.2    79  TRP79      -0.2718
    154  CB        50.9000   36.4630   58.7920 C.3    79  TRP79       0.0564
    155  CG        50.7020   35.6200   59.9570 C.ar   79  TRP79       0.0003
    156  CD1       51.5890   35.4020   60.9960 C.ar   79  TRP79       0.0946
    157  CD2       49.6300   34.7130   60.1540 C.ar   79  TRP79       0.0152
    158  NE1       51.1250   34.3950   61.8090 N.ar   79  TRP79      -0.2442
    159  CE2       49.9250   33.9550   61.3180 C.ar   79  TRP79       0.0810
    160  CE3       48.4500   34.4520   59.4580 C.ar   79  TRP79       0.0012
    161  CZ2       49.0790   32.9530   61.7940 C.ar   79  TRP79       0.0191
    162  CZ3       47.5970   33.4300   59.9320 C.ar   79  TRP79       0.0001
    163  CH2       47.9280   32.6970   61.0920 C.ar   79  TRP79       0.0015
    164  N         49.9890   34.2510   56.7080 N.am   80  ALA80      -0.1980
    165  CA        49.4210   32.9240   56.4720 C.3    80  ALA80       0.1597
    166  C         50.3860   31.9930   55.7450 C.2    80  ALA80       0.2287
    167  O         50.5310   30.8510   56.1180 O.2    80  ALA80      -0.2864
    168  CB        48.1550   33.0350   55.6660 C.3    80  ALA80       0.0319
    169  N         43.2300   30.4190   47.1760 N.3   129  ILE129     -0.1245
    170  CA        43.1960   31.7580   47.7590 C.3   129  ILE129      0.1561
    171  C         43.3090   32.7550   46.5880 C.2   129  ILE129      0.2260
    172  O         44.3020   32.7930   45.8530 O.2   129  ILE129     -0.2867
    173  CB        44.3440   31.9950   48.7820 C.3   129  ILE129      0.0252
    174  CG1       44.3590   30.8930   49.8650 C.3   129  ILE129      0.0019
    175  CG2       44.1410   33.3430   49.4660 C.3   129  ILE129      0.0019
    176  CD1       43.2720   30.9170   50.8240 C.3   129  ILE129      0.0001
    177  N         31.4480   37.8350   58.4140 N.3   209  TRP209     -0.1241
    178  CA        32.4250   36.7690   58.2990 C.3   209  TRP209      0.1605
    179  C         33.0560   36.2340   59.6310 C.2   209  TRP209      0.2264
    180  O         33.1740   35.0540   59.7890 O.2   209  TRP209     -0.2867
    181  CB        33.5280   37.1290   57.2730 C.3   209  TRP209      0.0550
    182  CG        34.6210   36.0250   57.1910 C.ar  209  TRP209      0.0003
    183  CD1       35.9240   36.1380   57.5540 C.ar  209  TRP209      0.0946
    184  CD2       34.4390   34.6810   56.7230 C.ar  209  TRP209      0.0152
    185  NE1       36.5820   34.9300   57.3490 N.ar  209  TRP209     -0.2442
    186  CE2       35.6880   34.0230   56.8260 C.ar  209  TRP209      0.0810
    187  CE3       33.3490   33.9770   56.2220 C.ar  209  TRP209      0.0012
    188  CZ2       35.8750   32.6690   56.4400 C.ar  209  TRP209      0.0191
    189  CZ3       33.5190   32.6220   55.8410 C.ar  209  TRP209      0.0001
    190  CH2       34.7850   31.9900   55.9620 C.ar  209  TRP209      0.0015
@<TRIPOS>BOND
     1   100    99    1
     2    99    98   ar
     3    99    97   ar
     4    98    96   ar
     5   106   107    1
     6    97    95   ar
     7   172   171    2
     8    96    94   ar
     9    95    94   ar
    10   171   170    1
    11    94    93    1
    12   107   108    1
    13   107   110    1
    14   108   109    2
    15   169   170    1
    16   112   111    2
    17   110   111    1
    18    93    90    1
    19   111   113   am
    20   170   173    1
    21    90    89    1
    22    90    91    1
    23    84    83    2
    24    81    82    1
    25    83    89   am
    26    83    82    1
    27   149   148   ar
    28   149   147   ar
    29   148   146   ar
    30   173   175    1
    31   173   174    1
    32   101    91   am
    33   101   102    1
    34    91    92    2
    35    82    85    1
    36   103   102    1
    37   103   104    2
    38   147   145   ar
    39   105   102    1
    40   146   144   ar
    41   174   176    1
    42    85    86    1
    43   145   144   ar
    44   144   143    1
    45    86    88    1
    46    86    87    1
    47     1     2    1
    48   143   140    1
    49    16    14   ar
    50     8     7    1
    51   129   128    1
    52    13    14    1
    53    13    10    1
    54    14    15   ar
    55   127   128    1
    56   127   124    1
    57     2     3    1
    58     2     5    1
    59     6     7    1
    60     6     5    1
    61   140   141    1
    62   140   139    1
    63     9     3   am
    64     9    10    1
    65   125   126    2
    66   125   124    1
    67   128   130    1
    68     3     4    2
    69   141   142    2
    70   116   117    2
    71   116   115    1
    72    10    11    1
    73   119   118    1
    74   119   120    1
    75   124   123    1
    76   118   115    1
    77   139   133   am
    78   115   114    1
    79    43    41    1
    80    11    12    2
    81    11    17   am
    82   120   122   ar
    83   120   121   ar
    84   168   165    1
    85   166   167    2
    86   166   165    1
    87   189   190   ar
    88   189   187   ar
    89   133   134    2
    90   133   132    1
    91    79    78    1
    92   190   188   ar
    93    17    18    1
    94   187   184   ar
    95    41    42    1
    96    41    40    2
    97    80    78    1
    98   188   186   ar
    99   131   132    1
   100   165   164    1
   101   150   151    1
   102    54    52    1
   103    28    26   am
   104   164   152   am
   105   184   186   ar
   106   184   182   ar
   107   186   185   ar
   108   132   135    1
   109    78    75    1
   110    53    52    1
   111    52    51    2
   112   135   136    1
   113    40    39    1
   114   182   181    1
   115   182   183   ar
   116   181   178    1
   117    77    76    2
   118    18    19    1
   119   185   183   ar
   120   152   151    1
   121   152   153    2
   122    64    63   ar
   123    64    62   ar
   124    75    76    1
   125    75    74    1
   126   136   138    1
   127   136   137    1
   128   151   154    1
   129    63    61   ar
   130    51    50    1
   131    26    25    1
   132    26    27    2
   133    21    19   am
   134    21    22    1
   135   178   177    1
   136   178   179    1
   137    62    60   ar
   138    39    38    1
   139    50    49    1
   140    19    20    2
   141    25    22    1
   142    61    60   ar
   143   154   155    1
   144    60    59    1
   145    29    30    1
   146    29    23   am
   147    22    23    1
   148    49    48    1
   149    68    67    2
   150   160   162   ar
   151   160   157   ar
   152    37    38    1
   153    37    34    1
   154    30    31    1
   155   179   180    2
   156    33    31   am
   157    33    34    1
   158    23    24    2
   159   162   163   ar
   160    67    66    1
   161    67    69   am
   162   155   157   ar
   163   155   156   ar
   164    70    69    1
   165    70    73    1
   166    70    71    1
   167    59    56    1
   168   157   159   ar
   169    72    71    2
   170    66    65    1
   171    31    32    2
   172    34    35    1
   173    56    57    1
   174    56    55    1
   175    48    45    1
   176    58    57    2
   177   156   158   ar
   178   163   161   ar
   179   159   161   ar
   180   159   158   ar
   181    47    46    2
   182    45    46    1
   183    45    44    1
   184    35    36    2
