@<TRIPOS>MOLECULE
tmp/1v7uB00.pdb
 116 106 0 0 0
SMALL
GASTEIGER

@<TRIPOS>ATOM
      1  N          3.6540   37.1180   29.3560 N.3    31  ALA31      -0.1245
      2  CA         3.7270   38.1860   28.3770 C.3    31  ALA31       0.1562
      3  C          3.0890   39.4150   28.9170 C.2    31  ALA31       0.2260
      4  O          3.6200   40.5050   28.7270 O.2    31  ALA31      -0.2867
      5  CB         3.0550   37.8100   27.1020 C.3    31  ALA31       0.0290
      6  N          5.5870   41.1060   31.1100 N.3    34  VAL34      -0.1231
      7  CA         6.6170   41.8650   30.3870 C.3    34  VAL34       0.1692
      8  C          6.1200   43.3200   30.0810 C.2    34  VAL34       0.2591
      9  O          6.8140   44.3190   30.3110 O.2    34  VAL34      -0.2718
     10  CB         6.8860   41.2140   29.0900 C.3    34  VAL34       0.0266
     11  CG1        7.6560   42.1550   28.1920 C.3    34  VAL34       0.0020
     12  CG2        7.5440   39.8210   29.3330 C.3    34  VAL34       0.0020
     13  N          4.8910   43.4010   29.5780 N.am   35  ARG35      -0.1980
     14  CA         4.2670   44.6820   29.2460 C.3    35  ARG35       0.1597
     15  C          4.1790   45.5080   30.4970 C.2    35  ARG35       0.2287
     16  O          4.5920   46.6360   30.5100 O.2    35  ARG35      -0.2864
     17  CB         2.8700   44.4660   28.6700 C.3    35  ARG35       0.0334
     18  CG         2.0670   45.7420   28.3280 C.3    35  ARG35       0.0492
     19  CD         0.7320   45.3540   27.5840 C.3    35  ARG35       0.2205
     20  NE         0.9090   44.1360   26.7550 N.pl3  35  ARG35      -0.0865
     21  CZ         0.6870   44.0310   25.4300 C.cat  35  ARG35       0.5346
     22  NH1        0.2690   45.0800   24.7070 N.pl3  35  ARG35       0.1354
     23  NH2        0.8650   42.8510   24.8290 N.pl3  35  ARG35       0.1354
     24  N          7.8550   46.6480   31.4360 N.3    38  VAL38      -0.1245
     25  CA         8.3970   47.6110   30.4750 C.3    38  VAL38       0.1561
     26  C          7.7880   49.0250   30.8050 C.2    38  VAL38       0.2260
     27  O          8.5360   49.9980   30.9660 O.2    38  VAL38      -0.2867
     28  CB         8.0710   47.1050   28.9840 C.3    38  VAL38       0.0252
     29  CG1        8.2770   48.2230   27.9770 C.3    38  VAL38       0.0019
     30  CG2        8.9620   45.8690   28.6110 C.3    38  VAL38       0.0019
     31  N          8.0470   35.1300   18.0040 N.3    69  PHE69      -0.1241
     32  CA         8.9270   36.2760   18.0590 C.3    69  PHE69       0.1605
     33  C          8.3850   37.2290   16.9500 C.2    69  PHE69       0.2264
     34  O          8.0120   38.3600   17.2220 O.2    69  PHE69      -0.2867
     35  CB        10.3570   35.7660   17.8060 C.3    69  PHE69       0.0534
     36  CG        11.4640   36.6930   18.2830 C.ar   69  PHE69      -0.0203
     37  CD1       12.7600   36.2050   18.4370 C.ar   69  PHE69      -0.0042
     38  CD2       11.2280   38.0450   18.5290 C.ar   69  PHE69      -0.0042
     39  CE1       13.7840   37.0420   18.8140 C.ar   69  PHE69      -0.0003
     40  CE2       12.2820   38.8930   18.9160 C.ar   69  PHE69      -0.0003
     41  CZ        13.5440   38.4070   19.0550 C.ar   69  PHE69      -0.0000
     42  N          5.1250   38.7380   18.0520 N.3    72  ALA72      -0.1231
     43  CA         5.3870   39.7200   19.0800 C.3    72  ALA72       0.1694
     44  C          5.9060   41.0770   18.4890 C.2    72  ALA72       0.2591
     45  O          5.4360   42.1470   18.8540 O.2    72  ALA72      -0.2718
     46  CB         6.4080   39.1270   20.0930 C.3    72  ALA72       0.0304
     47  N          6.8850   41.0180   17.5990 N.am   73  LEU73      -0.1980
     48  CA         7.4530   42.2230   16.9810 C.3    73  LEU73       0.1596
     49  C          6.4250   42.9810   16.1820 C.2    73  LEU73       0.2287
     50  O          6.2770   44.2150   16.3110 O.2    73  LEU73      -0.2864
     51  CB         8.6610   41.8390   16.0770 C.3    73  LEU73       0.0297
     52  CG         9.9140   41.3180   16.8480 C.3    73  LEU73       0.0022
     53  CD1       10.9340   40.6770   15.9080 C.3    73  LEU73       0.0001
     54  CD2       10.5330   42.5380   17.6630 C.3    73  LEU73       0.0001
     55  N          3.7280   44.3280   18.8450 N.3    76  GLU76      -0.1231
     56  CA         4.1460   45.2510   19.8600 C.3    76  GLU76       0.1699
     57  C          5.0860   46.3570   19.4870 C.2    76  GLU76       0.2592
     58  O          5.1920   47.3010   20.2640 O.2    76  GLU76      -0.2718
     59  CB         4.7170   44.4600   21.0420 C.3    76  GLU76       0.0402
     60  CG         3.6920   43.4660   21.6260 C.3    76  GLU76       0.1161
     61  CD         2.4820   44.1820   22.2030 C.2    76  GLU76       0.3649
     62  OE1        1.3530   43.6290   22.1080 O.co2  76  GLU76      -0.2457
     63  OE2        2.6530   45.2990   22.7370 O.co2  76  GLU76      -0.2457
     64  N          5.7610   46.2880   18.3290 N.am   77  VAL77      -0.1980
     65  CA         6.6870   47.3710   18.0080 C.3    77  VAL77       0.1595
     66  C          6.0420   48.7860   17.8580 C.2    77  VAL77       0.2287
     67  O          6.5850   49.7590   18.3970 O.2    77  VAL77      -0.2864
     68  CB         7.5950   47.0010   16.7990 C.3    77  VAL77       0.0276
     69  CG1        8.4880   48.1820   16.4170 C.3    77  VAL77       0.0022
     70  CG2        8.5310   45.8160   17.1960 C.3    77  VAL77       0.0022
     71  N          3.6800   50.1010   19.4260 N.3    79  SER79      -0.1202
     72  CA         3.5080   50.6100   20.7890 C.3    79  SER79       0.2020
     73  C          4.8440   51.0250   21.4460 C.2    79  SER79       0.2618
     74  O          4.9450   52.1040   22.0590 O.2    79  SER79      -0.2717
     75  CB         2.7900   49.5410   21.6230 C.3    79  SER79       0.2103
     76  OG         2.4720   50.0210   22.9120 O.3    79  SER79      -0.2182
     77  N          5.8690   50.1760   21.3290 N.am   80  LEU80      -0.1979
     78  CA         7.1500   50.5450   21.9040 C.3    80  LEU80       0.1596
     79  C          7.5830   51.8780   21.3210 C.2    80  LEU80       0.2287
     80  O          8.2250   52.7050   21.9680 O.2    80  LEU80      -0.2864
     81  CB         8.2140   49.5180   21.5620 C.3    80  LEU80       0.0297
     82  CG         8.0150   48.2060   22.2980 C.3    80  LEU80       0.0022
     83  CD1        9.1340   47.2620   21.9600 C.3    80  LEU80       0.0001
     84  CD2        7.9910   48.4660   23.7930 C.3    80  LEU80       0.0001
     85  N         14.2570   49.6390   20.8560 N.3    87  LEU87      -0.1245
     86  CA        14.3220   48.1900   20.9700 C.3    87  LEU87       0.1561
     87  C         15.6170   47.6090   20.4590 C.2    87  LEU87       0.2260
     88  O         16.0870   47.9660   19.3990 O.2    87  LEU87      -0.2867
     89  CB        13.1780   47.4780   20.2130 C.3    87  LEU87       0.0270
     90  CG        13.1650   45.9380   20.3300 C.3    87  LEU87       0.0019
     91  CD1       12.8000   45.5960   21.7270 C.3    87  LEU87       0.0001
     92  CD2       12.1300   45.2830   19.3550 C.3    87  LEU87       0.0001
     93  N         17.7580   43.7360   20.2030 N.3    89  ILE89      -0.1245
     94  CA        17.8110   42.3250   20.5250 C.3    89  ILE89       0.1561
     95  C         19.2920   41.8860   20.7220 C.2    89  ILE89       0.2260
     96  O         20.1780   42.1930   19.9050 O.2    89  ILE89      -0.2867
     97  CB        17.1250   41.4570   19.4230 C.3    89  ILE89       0.0252
     98  CG1       15.5710   41.4340   19.5850 C.3    89  ILE89       0.0019
     99  CG2       17.5930   40.0010   19.5620 C.3    89  ILE89       0.0019
    100  CD1       14.8750   42.7550   19.6870 C.3    89  ILE89       0.0001
    101  N         15.0420   49.0700   25.6100 N.3   119  LEU119     -0.1245
    102  CA        14.6070   47.7510   26.0620 C.3   119  LEU119      0.1561
    103  C         15.4650   46.6890   25.3540 C.2   119  LEU119      0.2260
    104  O         15.4460   46.5940   24.1140 O.2   119  LEU119     -0.2867
    105  CB        13.1260   47.5510   25.7480 C.3   119  LEU119      0.0270
    106  CG        12.5180   46.1560   25.7520 C.3   119  LEU119      0.0019
    107  CD1       12.6660   45.4800   27.1710 C.3   119  LEU119      0.0001
    108  CD2       11.0600   46.2740   25.3760 C.3   119  LEU119      0.0001
    109  N         16.1000   42.8410   24.4790 N.3   121  ILE121     -0.1245
    110  CA        15.4960   41.5150   24.5080 C.3   121  ILE121      0.1561
    111  C         16.5670   40.5020   24.1640 C.2   121  ILE121      0.2260
    112  O         17.0500   40.4700   23.0340 O.2   121  ILE121     -0.2867
    113  CB        14.3060   41.3510   23.5110 C.3   121  ILE121      0.0252
    114  CG1       13.2210   42.4320   23.8060 C.3   121  ILE121      0.0019
    115  CG2       13.6630   39.9240   23.6740 C.3   121  ILE121      0.0019
    116  CD1       12.5570   42.2990   25.1860 C.3   121  ILE121      0.0001
@<TRIPOS>BOND
     1    53    52    1
     2    51    52    1
     3    51    48    1
     4    49    50    2
     5    49    48    1
     6    69    68    1
     7    68    70    1
     8    68    65    1
     9    52    54    1
    10    33    34    2
    11    33    32    1
    12    48    47    1
    13    47    44   am
    14    35    32    1
    15    35    36    1
    16    66    65    1
    17    66    67    2
    18    31    32    1
    19    65    64    1
    20    42    43    1
    21    36    37   ar
    22    36    38   ar
    23    64    57   am
    24    37    39   ar
    25    44    45    2
    26    44    43    1
    27    38    40   ar
    28    39    41   ar
    29    55    56    1
    30    40    41   ar
    31    43    46    1
    32    92    90    1
    33    88    87    2
    34    97    99    1
    35    97    98    1
    36    97    94    1
    37    71    72    1
    38    57    56    1
    39    57    58    2
    40    98   100    1
    41    56    59    1
    42    96    95    2
    43    93    94    1
    44    89    90    1
    45    89    86    1
    46    90    91    1
    47    87    86    1
    48    94    95    1
    49    72    73    1
    50    72    75    1
    51    85    86    1
    52    59    60    1
    53    79    78    1
    54    79    80    2
    55    77    73   am
    56    77    78    1
    57    73    74    2
    58    81    78    1
    59    81    82    1
    60    75    76    1
    61    60    61    1
    62    83    82    1
    63    62    61   ar
    64    61    63   ar
    65    82    84    1
    66   112   111    2
    67   113   115    1
    68   113   114    1
    69   113   110    1
    70   114   116    1
    71   104   103    2
    72   111   110    1
    73   109   110    1
    74    22    21    1
    75    23    21    1
    76   103   102    1
    77   108   106    1
    78    21    20    2
    79   101   102    1
    80   105   106    1
    81   105   102    1
    82   106   107    1
    83    20    19    1
    84     5     2    1
    85    19    18    1
    86    29    28    1
    87    11    10    1
    88    18    17    1
    89     2     3    1
    90     2     1    1
    91    30    28    1
    92    17    14    1
    93     4     3    2
    94    28    25    1
    95    10    12    1
    96    10     7    1
    97    14    13    1
    98    14    15    1
    99    13     8   am
   100     8     9    2
   101     8     7    1
   102     7     6    1
   103    25    26    1
   104    25    24    1
   105    15    16    2
   106    26    27    2
