@<TRIPOS>MOLECULE
tmp/1v7wA01.pdb
 157 152 0 0 0
SMALL
GASTEIGER

@<TRIPOS>ATOM
      1  N         74.6620   51.9020   24.5180 N.3   333  ARG333     -0.1231
      2  CA        75.3390   51.1190   25.5490 C.3   333  ARG333      0.1694
      3  C         74.5130   50.6650   26.7320 C.2   333  ARG333      0.2592
      4  O         75.0720   50.1430   27.6990 O.2   333  ARG333     -0.2718
      5  CB        76.4990   51.9420   26.1180 C.3   333  ARG333      0.0321
      6  CG        77.3830   52.6210   25.0930 C.3   333  ARG333      0.0489
      7  CD        78.1230   51.6210   24.2220 C.3   333  ARG333      0.2205
      8  NE        79.3070   52.2450   23.6420 N.pl3 333  ARG333     -0.0865
      9  CZ        80.3700   52.6120   24.3490 C.cat 333  ARG333      0.5346
     10  NH1       80.4050   52.4080   25.6630 N.pl3 333  ARG333      0.1354
     11  NH2       81.3860   53.2180   23.7530 N.pl3 333  ARG333      0.1354
     12  N         73.1980   50.8160   26.6640 N.am  334  PHE334     -0.1976
     13  CA        72.3910   50.5010   27.8270 C.3   334  PHE334      0.1639
     14  C         71.4200   49.3360   27.7680 C.2   334  PHE334      0.2290
     15  O         70.3990   49.3410   28.4550 O.2   334  PHE334     -0.2864
     16  CB        71.6850   51.7910   28.2460 C.3   334  PHE334      0.0560
     17  CG        72.6300   52.9510   28.3930 C.ar  334  PHE334     -0.0200
     18  CD1       73.5510   52.9780   29.4350 C.ar  334  PHE334     -0.0042
     19  CD2       72.6650   53.9720   27.4440 C.ar  334  PHE334     -0.0042
     20  CE1       74.4970   53.9950   29.5320 C.ar  334  PHE334     -0.0003
     21  CE2       73.6120   54.9990   27.5320 C.ar  334  PHE334     -0.0003
     22  CZ        74.5290   55.0080   28.5790 C.ar  334  PHE334     -0.0000
     23  N         73.7800   45.9810   31.6220 N.3   339  GLU339     -0.1245
     24  CA        72.9960   47.2180   31.6310 C.3   339  GLU339      0.1567
     25  C         71.5590   46.7480   31.4660 C.2   339  GLU339      0.2260
     26  O         71.1280   46.3710   30.3690 O.2   339  GLU339     -0.2867
     27  CB        73.4050   48.1420   30.4810 C.3   339  GLU339      0.0388
     28  CG        74.7070   48.9050   30.7260 C.3   339  GLU339      0.1160
     29  CD        74.7010   49.7010   32.0260 C.2   339  GLU339      0.3649
     30  OE1       73.6200   50.1530   32.4580 O.co2 339  GLU339     -0.2457
     31  OE2       75.7880   49.8880   32.6100 O.co2 339  GLU339     -0.2457
     32  N         70.0200   53.9020   33.5630 N.3   343  ARG343     -0.1245
     33  CA        70.5720   54.6920   32.4760 C.3   343  ARG343      0.1563
     34  C         70.0350   54.2140   31.1330 C.2   343  ARG343      0.2260
     35  O         69.9000   53.0130   30.8890 O.2   343  ARG343     -0.2867
     36  CB        72.0990   54.6130   32.4840 C.3   343  ARG343      0.0307
     37  CG        72.7390   55.2480   33.7100 C.3   343  ARG343      0.0489
     38  CD        74.2230   55.4510   33.4940 C.3   343  ARG343      0.2205
     39  NE        74.9260   54.1840   33.3290 N.pl3 343  ARG343     -0.0865
     40  CZ        76.1400   54.0740   32.8020 C.cat 343  ARG343      0.5346
     41  NH1       76.7120   52.8830   32.6910 N.pl3 343  ARG343      0.1354
     42  NH2       76.7750   55.1580   32.3770 N.pl3 343  ARG343      0.1354
     43  N         80.3510   60.8240   25.4040 N.3   349  ARG349     -0.1231
     44  CA        81.6670   60.4000   24.9380 C.3   349  ARG349      0.1694
     45  C         81.6340   59.0240   24.2840 C.2   349  ARG349      0.2592
     46  O         82.4180   58.7350   23.3810 O.2   349  ARG349     -0.2718
     47  CB        82.6760   60.3850   26.0910 C.3   349  ARG349      0.0321
     48  CG        82.5690   59.1880   27.0310 C.3   349  ARG349      0.0489
     49  CD        83.8110   59.0790   27.9120 C.3   349  ARG349      0.2205
     50  NE        83.9290   60.1670   28.8830 N.pl3 349  ARG349     -0.0865
     51  CZ        83.4000   60.1440   30.1040 C.cat 349  ARG349      0.5346
     52  NH1       82.7080   59.0880   30.5130 N.pl3 349  ARG349      0.1354
     53  NH2       83.5770   61.1710   30.9250 N.pl3 349  ARG349      0.1354
     54  N         80.7170   58.1820   24.7420 N.am  350  ASP350     -0.1974
     55  CA        80.5940   56.8240   24.2340 C.3   350  ASP350      0.1709
     56  C         80.1900   56.7820   22.7680 C.2   350  ASP350      0.2293
     57  O         80.8770   56.1770   21.9420 O.2   350  ASP350     -0.2864
     58  CB        79.5850   56.0690   25.0920 C.3   350  ASP350      0.1436
     59  CG        79.8650   56.2340   26.5690 C.2   350  ASP350      0.3671
     60  OD1       80.8400   55.6300   27.0620 O.co2 350  ASP350     -0.2456
     61  OD2       79.1270   56.9940   27.2280 O.co2 350  ASP350     -0.2456
     62  N         76.2060   64.8590   29.3560 N.3   385  HIS385     -0.1241
     63  CA        76.8230   63.5670   29.6300 C.3   385  HIS385      0.1621
     64  C         75.9650   62.3540   29.2880 C.2   385  HIS385      0.2264
     65  O         76.4580   61.3780   28.7210 O.2   385  HIS385     -0.2867
     66  CB        77.2540   63.5050   31.0930 C.3   385  HIS385      0.0745
     67  CG        78.1660   62.3610   31.3970 C.ar  385  HIS385      0.0817
     68  ND1       79.4000   62.2170   30.8000 N.ar  385  HIS385     -0.2268
     69  CD2       78.0190   61.2970   32.2210 C.ar  385  HIS385      0.1154
     70  CE1       79.9730   61.1110   31.2430 C.ar  385  HIS385      0.1986
     71  NE2       79.1550   60.5350   32.1060 N.ar  385  HIS385     -0.2212
     72  N         87.8530   61.2700   30.7620 N.3   468  TRP468     -0.1227
     73  CA        87.5040   59.9650   30.2030 C.3   468  TRP468      0.1737
     74  C         87.3120   58.9320   31.3140 C.2   468  TRP468      0.2595
     75  O         86.4340   58.0690   31.2390 O.2   468  TRP468     -0.2718
     76  CB        88.5890   59.4780   29.2370 C.3   468  TRP468      0.0564
     77  CG        88.3600   58.0680   28.8000 C.ar  468  TRP468      0.0003
     78  CD1       87.6110   57.6430   27.7380 C.ar  468  TRP468      0.0946
     79  CD2       88.7830   56.8870   29.4910 C.ar  468  TRP468      0.0152
     80  NE1       87.5360   56.2690   27.7320 N.ar  468  TRP468     -0.2442
     81  CE2       88.2450   55.7800   28.7970 C.ar  468  TRP468      0.0810
     82  CE3       89.5610   56.6570   30.6340 C.ar  468  TRP468      0.0012
     83  CZ2       88.4580   54.4620   29.2110 C.ar  468  TRP468      0.0191
     84  CZ3       89.7730   55.3460   31.0460 C.ar  468  TRP468      0.0001
     85  CH2       89.2210   54.2660   30.3350 C.ar  468  TRP468      0.0015
     86  N         88.1530   59.0260   32.3380 N.am  469  ASN469     -0.1960
     87  CA        88.0970   58.1240   33.4820 C.3   469  ASN469      0.1819
     88  C         87.0170   58.6550   34.4260 C.2   469  ASN469      0.2621
     89  O         87.2240   59.6640   35.0990 O.2   469  ASN469     -0.2715
     90  CB        89.4590   58.1190   34.1810 C.3   469  ASN469      0.1195
     91  CG        89.5590   57.0780   35.2770 C.2   469  ASN469      0.2630
     92  OD1       88.6200   56.8680   36.0430 O.2   469  ASN469     -0.2716
     93  ND2       90.7200   56.4320   35.3700 N.am  469  ASN469     -0.0877
     94  N         85.8680   57.9830   34.4720 N.am  470  ASP470     -0.1971
     95  CA        84.7660   58.4230   35.3240 C.3   470  ASP470      0.1709
     96  C         85.1110   58.4670   36.8080 C.2   470  ASP470      0.2293
     97  O         84.3720   59.0520   37.6000 O.2   470  ASP470     -0.2864
     98  CB        83.5330   57.5300   35.1280 C.3   470  ASP470      0.1436
     99  CG        82.7490   57.8770   33.8780 C.2   470  ASP470      0.3671
    100  OD1       82.8110   59.0470   33.4390 O.co2 470  ASP470     -0.2456
    101  OD2       82.0510   56.9850   33.3410 O.co2 470  ASP470     -0.2456
    102  N         87.8990   47.4870   37.8690 N.3   614  LYS614     -0.1231
    103  CA        87.3610   48.6490   37.1770 C.3   614  LYS614      0.1693
    104  C         88.4550   49.6720   36.8780 C.2   614  LYS614      0.2591
    105  O         89.5250   49.3070   36.3940 O.2   614  LYS614     -0.2718
    106  CB        86.2300   49.2690   38.0080 C.3   614  LYS614      0.0285
    107  CG        84.9990   48.3590   38.1500 C.3   614  LYS614      0.0035
    108  CD        84.0970   48.3880   36.9070 C.3   614  LYS614      0.0206
    109  CE        83.3480   49.7100   36.8060 C.3   614  LYS614      0.1093
    110  NZ        82.4040   49.7850   35.6500 N.3   614  LYS614     -0.1314
    111  N         88.2030   50.9420   37.1720 N.am  615  GLU615     -0.1979
    112  CA        89.1850   51.9820   36.8820 C.3   615  GLU615      0.1602
    113  C         90.4540   51.9590   37.7370 C.2   615  GLU615      0.2287
    114  O         91.4240   52.6550   37.4260 O.2   615  GLU615     -0.2864
    115  CB        88.5290   53.3690   36.9730 C.3   615  GLU615      0.0415
    116  CG        87.5860   53.7060   35.8110 C.3   615  GLU615      0.1163
    117  CD        86.1660   53.1880   36.0000 C.2   615  GLU615      0.3649
    118  OE1       85.8930   52.4860   36.9950 O.co2 615  GLU615     -0.2457
    119  OE2       85.3150   53.4900   35.1390 O.co2 615  GLU615     -0.2457
    120  N         91.5930   47.8520   31.7000 N.3   620  PHE620     -0.1241
    121  CA        90.4240   48.5130   31.1330 C.3   620  PHE620      0.1605
    122  C         90.6970   48.4870   29.6380 C.2   620  PHE620      0.2264
    123  O         91.6390   49.1130   29.1550 O.2   620  PHE620     -0.2867
    124  CB        90.3080   49.9500   31.6450 C.3   620  PHE620      0.0534
    125  CG        88.8980   50.3640   31.9700 C.ar  620  PHE620     -0.0203
    126  CD1       88.3860   50.2010   33.2570 C.ar  620  PHE620     -0.0042
    127  CD2       88.0740   50.9010   30.9850 C.ar  620  PHE620     -0.0042
    128  CE1       87.0760   50.5690   33.5560 C.ar  620  PHE620     -0.0003
    129  CE2       86.7630   51.2700   31.2730 C.ar  620  PHE620     -0.0003
    130  CZ        86.2620   51.1050   32.5600 C.ar  620  PHE620     -0.0000
    131  N         89.0900   49.6650   26.7710 N.3   622  HIS622     -0.1241
    132  CA        88.9360   50.8500   25.9300 C.3   622  HIS622      0.1621
    133  C         90.2310   51.5710   25.5270 C.2   622  HIS622      0.2264
    134  O         90.4550   51.8150   24.3410 O.2   622  HIS622     -0.2867
    135  CB        87.9630   51.8270   26.6050 C.3   622  HIS622      0.0745
    136  CG        87.4930   52.9340   25.7140 C.ar  622  HIS622      0.0817
    137  ND1       86.2380   52.9500   25.1450 N.ar  622  HIS622     -0.2268
    138  CD2       88.1010   54.0780   25.3190 C.ar  622  HIS622      0.1154
    139  CE1       86.0910   54.0580   24.4410 C.ar  622  HIS622      0.1986
    140  NE2       87.2070   54.7600   24.5300 N.ar  622  HIS622     -0.2212
    141  N         84.4960   45.3310   28.9050 N.3   668  GLN668     -0.1245
    142  CA        84.8910   46.5820   29.5440 C.3   668  GLN668      0.1566
    143  C         86.2310   46.4530   30.2500 C.2   668  GLN668      0.2260
    144  O         87.1220   47.2780   30.0630 O.2   668  GLN668     -0.2867
    145  CB        83.8610   47.0560   30.5690 C.3   668  GLN668      0.0367
    146  CG        84.3840   48.2850   31.3260 C.3   668  GLN668      0.0905
    147  CD        83.3760   48.9100   32.2610 C.2   668  GLN668      0.2608
    148  OE1       83.0810   48.3800   33.3340 O.2   668  GLN668     -0.2717
    149  NE2       82.8420   50.0540   31.8590 N.am  668  GLN668     -0.0878
    150  N         78.7080   45.8610   24.6750 N.3   686  LEU686     -0.1245
    151  CA        78.5750   47.3090   24.6570 C.3   686  LEU686      0.1561
    152  C         79.6990   48.1190   25.2960 C.2   686  LEU686      0.2260
    153  O         79.4890   48.8550   26.2610 O.2   686  LEU686     -0.2867
    154  CB        77.2120   47.6990   25.2460 C.3   686  LEU686      0.0270
    155  CG        76.0390   46.9280   24.6150 C.3   686  LEU686      0.0019
    156  CD1       74.7160   47.4950   25.1190 C.3   686  LEU686      0.0001
    157  CD2       76.1040   47.0250   23.0910 C.3   686  LEU686      0.0001
@<TRIPOS>BOND
     1    57    56    2
     2    56    55    1
     3   157   155    1
     4    46    45    2
     5     8     7    1
     6     8     9    2
     7    11     9    1
     8     7     6    1
     9    55    54    1
    10    55    58    1
    11    45    54   am
    12    45    44    1
    13   134   133    2
    14     9    10    1
    15   139   140   ar
    16   139   137   ar
    17     1     2    1
    18   140   138   ar
    19   155   156    1
    20   155   154    1
    21   151   150    1
    22   151   154    1
    23   151   152    1
    24    44    43    1
    25    44    47    1
    26    58    59    1
    27     6     5    1
    28   137   136   ar
    29   152   153    2
    30   138   136   ar
    31   133   132    1
    32     2     5    1
    33     2     3    1
    34   136   135    1
    35   132   135    1
    36   132   131    1
    37    47    48    1
    38    59    60   ar
    39    59    61   ar
    40    12     3   am
    41    12    13    1
    42     3     4    2
    43    48    49    1
    44    19    21   ar
    45    19    17   ar
    46    21    22   ar
    47    80    78   ar
    48    80    81   ar
    49    78    77   ar
    50    14    13    1
    51    14    15    2
    52    13    16    1
    53    49    50    1
    54    16    17    1
    55    17    18   ar
    56    22    20   ar
    57    65    64    2
    58    81    83   ar
    59    81    79   ar
    60    77    76    1
    61    77    79   ar
    62    50    51    2
    63   141   142    1
    64   123   122    2
    65    83    85   ar
    66    76    73    1
    67    64    63    1
    68    62    63    1
    69    18    20   ar
    70    79    82   ar
    71   142   143    1
    72   142   145    1
    73    63    66    1
    74   122   121    1
    75   144   143    2
    76    51    52    1
    77    51    53    1
    78    73    72    1
    79    73    74    1
    80    85    84   ar
    81    26    25    2
    82    27    28    1
    83    27    24    1
    84   145   146    1
    85    82    84   ar
    86    28    29    1
    87    68    70   ar
    88    68    67   ar
    89    35    34    2
    90   127   129   ar
    91   127   125   ar
    92    66    67    1
    93    34    33    1
    94   121   124    1
    95   121   120    1
    96    75    74    2
    97    70    71   ar
    98   129   130   ar
    99    74    86   am
   100   146   147    1
   101    67    69   ar
   102    25    24    1
   103    23    24    1
   104   124   125    1
   105   149   147   am
   106   125   126   ar
   107    29    30   ar
   108    29    31   ar
   109    71    69   ar
   110   147   148    2
   111    86    87    1
   112    42    40    1
   113    33    36    1
   114    33    32    1
   115    36    37    1
   116   130   128   ar
   117    41    40    1
   118    40    39    2
   119   126   128   ar
   120    39    38    1
   121   101    99   ar
   122   100    99   ar
   123    87    90    1
   124    87    88    1
   125    38    37    1
   126    99    98    1
   127    90    91    1
   128    88    94   am
   129    88    89    2
   130    94    95    1
   131    98    95    1
   132   119   117   ar
   133    91    93   am
   134    91    92    2
   135    95    96    1
   136   110   109    1
   137   116   117    1
   138   116   115    1
   139   117   118   ar
   140   105   104    2
   141   109   108    1
   142    96    97    2
   143   104   111   am
   144   104   103    1
   145   112   115    1
   146   112   111    1
   147   112   113    1
   148   108   107    1
   149   103   102    1
   150   103   106    1
   151   114   113    2
   152   106   107    1
