@<TRIPOS>MOLECULE
tmp/1v7xA00.pdb
 91 86 0 0 0
SMALL
GASTEIGER

@<TRIPOS>ATOM
      1  N         70.0410   53.9180   33.3210 N.3   343  ARG343     -0.1245
      2  CA        70.5980   54.7120   32.2410 C.3   343  ARG343      0.1563
      3  C         70.0210   54.2330   30.9160 C.2   343  ARG343      0.2260
      4  O         69.8500   53.0280   30.6970 O.2   343  ARG343     -0.2867
      5  CB        72.1210   54.5910   32.2300 C.3   343  ARG343      0.0307
      6  CG        72.7740   55.1280   33.4920 C.3   343  ARG343      0.0489
      7  CD        74.2620   55.3120   33.2890 C.3   343  ARG343      0.2205
      8  NE        74.9500   54.0400   33.0950 N.pl3 343  ARG343     -0.0865
      9  CZ        76.1860   53.9310   32.6200 C.cat 343  ARG343      0.5346
     10  NH1       76.7440   52.7360   32.4800 N.pl3 343  ARG343      0.1354
     11  NH2       76.8560   55.0210   32.2710 N.pl3 343  ARG343      0.1354
     12  N         76.0730   64.8350   29.2530 N.3   385  HIS385     -0.1241
     13  CA        76.6980   63.5400   29.5140 C.3   385  HIS385      0.1621
     14  C         75.8480   62.3330   29.1180 C.2   385  HIS385      0.2264
     15  O         76.3450   61.3850   28.5100 O.2   385  HIS385     -0.2867
     16  CB        77.0860   63.4310   30.9910 C.3   385  HIS385      0.0745
     17  CG        77.9650   62.2570   31.2940 C.ar  385  HIS385      0.0817
     18  ND1       79.2090   62.0940   30.7250 N.ar  385  HIS385     -0.2268
     19  CD2       77.7760   61.1840   32.0990 C.ar  385  HIS385      0.1154
     20  CE1       79.7500   60.9710   31.1660 C.ar  385  HIS385      0.1986
     21  NE2       78.9000   60.4000   32.0000 N.ar  385  HIS385     -0.2212
     22  N         85.8360   58.0360   34.2820 N.3   470  ASP470     -0.1225
     23  CA        84.7310   58.5020   35.1240 C.3   470  ASP470      0.1805
     24  C         85.0880   58.5660   36.6000 C.2   470  ASP470      0.2598
     25  O         84.4700   59.2970   37.3730 O.2   470  ASP470     -0.2718
     26  CB        83.5100   57.5960   34.9590 C.3   470  ASP470      0.1424
     27  CG        82.7270   57.8970   33.7050 C.2   470  ASP470      0.3668
     28  OD1       82.4880   59.0920   33.4350 O.co2 470  ASP470     -0.2456
     29  OD2       82.3490   56.9400   33.0000 O.co2 470  ASP470     -0.2456
     30  N         86.0920   57.7980   36.9890 N.am  471  CYS471     -0.1970
     31  CA        86.5050   57.7760   38.3760 C.3   471  CYS471      0.1712
     32  C         87.6580   58.7390   38.6700 C.2   471  CYS471      0.2296
     33  O         88.3080   58.6500   39.7130 O.2   471  CYS471     -0.2864
     34  CB        86.8480   56.3400   38.7770 C.3   471  CYS471      0.0983
     35  SG        85.4120   55.2360   38.6630 S.3   471  CYS471     -0.0798
     36  N         87.6370   59.1460   42.7920 N.3   605  PHE605     -0.1241
     37  CA        86.9800   57.9300   43.2560 C.3   605  PHE605      0.1605
     38  C         87.7970   56.6730   42.9600 C.2   605  PHE605      0.2264
     39  O         87.5590   55.6170   43.5420 O.2   605  PHE605     -0.2867
     40  CB        85.6000   57.8070   42.5980 C.3   605  PHE605      0.0534
     41  CG        84.6900   56.8350   43.2850 C.ar  605  PHE605     -0.0203
     42  CD1       84.1080   57.1560   44.5080 C.ar  605  PHE605     -0.0042
     43  CD2       84.4350   55.5870   42.7290 C.ar  605  PHE605     -0.0042
     44  CE1       83.2870   56.2450   45.1700 C.ar  605  PHE605     -0.0003
     45  CE2       83.6140   54.6680   43.3840 C.ar  605  PHE605     -0.0003
     46  CZ        83.0410   55.0010   44.6060 C.ar  605  PHE605     -0.0000
     47  N         88.3610   52.4190   44.8450 N.3   609  VAL609     -0.1245
     48  CA        87.9690   51.2220   44.1110 C.3   609  VAL609      0.1561
     49  C         88.9230   50.0720   44.4000 C.2   609  VAL609      0.2260
     50  O         90.1100   50.2890   44.6530 O.2   609  VAL609     -0.2867
     51  CB        87.9450   51.5090   42.5920 C.3   609  VAL609      0.0252
     52  CG1       87.6460   50.2330   41.8080 C.3   609  VAL609      0.0019
     53  CG2       86.8920   52.5660   42.2930 C.3   609  VAL609      0.0019
     54  N         87.9420   47.5660   37.7150 N.3   614  LYS614     -0.1231
     55  CA        87.4620   48.7570   37.0230 C.3   614  LYS614      0.1693
     56  C         88.6010   49.7340   36.7390 C.2   614  LYS614      0.2591
     57  O         89.6620   49.3400   36.2660 O.2   614  LYS614     -0.2718
     58  CB        86.3710   49.4480   37.8560 C.3   614  LYS614      0.0285
     59  CG        85.1290   48.5850   38.1380 C.3   614  LYS614      0.0035
     60  CD        84.2120   48.4310   36.9150 C.3   614  LYS614      0.0206
     61  CE        83.4800   49.7260   36.5920 C.3   614  LYS614      0.1093
     62  NZ        82.5070   49.5920   35.4660 N.3   614  LYS614     -0.1314
     63  N         88.3820   51.0050   37.0450 N.am  615  GLU615     -0.1979
     64  CA        89.3830   52.0330   36.7900 C.3   615  GLU615      0.1602
     65  C         90.6590   51.9450   37.6300 C.2   615  GLU615      0.2287
     66  O         91.6720   52.5580   37.2850 O.2   615  GLU615     -0.2864
     67  CB        88.7590   53.4210   36.9680 C.3   615  GLU615      0.0415
     68  CG        87.7240   53.8300   35.9010 C.3   615  GLU615      0.1163
     69  CD        86.3590   53.1600   36.0660 C.2   615  GLU615      0.3649
     70  OE1       86.0280   52.7240   37.1890 O.co2 615  GLU615     -0.2457
     71  OE2       85.6020   53.0930   35.0710 O.co2 615  GLU615     -0.2457
     72  N         91.6120   47.8760   31.5980 N.3   620  PHE620     -0.1241
     73  CA        90.4570   48.5580   31.0240 C.3   620  PHE620      0.1605
     74  C         90.6780   48.5410   29.5140 C.2   620  PHE620      0.2264
     75  O         91.5670   49.2180   29.0020 O.2   620  PHE620     -0.2867
     76  CB        90.3580   49.9950   31.5500 C.3   620  PHE620      0.0534
     77  CG        88.9460   50.4310   31.8410 C.ar  620  PHE620     -0.0203
     78  CD1       88.3800   50.2110   33.0940 C.ar  620  PHE620     -0.0042
     79  CD2       88.1630   51.0050   30.8450 C.ar  620  PHE620     -0.0042
     80  CE1       87.0500   50.5530   33.3510 C.ar  620  PHE620     -0.0003
     81  CE2       86.8320   51.3510   31.0900 C.ar  620  PHE620     -0.0003
     82  CZ        86.2750   51.1240   32.3440 C.ar  620  PHE620     -0.0000
     83  N         84.4440   45.3690   28.6320 N.3   668  GLN668     -0.1245
     84  CA        84.8330   46.6360   29.2470 C.3   668  GLN668      0.1566
     85  C         86.1620   46.5300   29.9810 C.2   668  GLN668      0.2260
     86  O         87.0390   47.3740   29.8100 O.2   668  GLN668     -0.2867
     87  CB        83.7730   47.1400   30.2280 C.3   668  GLN668      0.0367
     88  CG        84.1790   48.4730   30.8560 C.3   668  GLN668      0.0905
     89  CD        83.1510   49.0300   31.8100 C.2   668  GLN668      0.2608
     90  OE1       82.9220   48.4860   32.8870 O.2   668  GLN668     -0.2717
     91  NE2       82.5250   50.1270   31.4180 N.am  668  GLN668     -0.0878
@<TRIPOS>BOND
     1    15    14    2
     2    83    84    1
     3    75    74    2
     4    14    13    1
     5    84    85    1
     6    84    87    1
     7    12    13    1
     8    74    73    1
     9    13    16    1
    10    86    85    2
    11    87    88    1
    12     4     3    2
    13    18    20   ar
    14    18    17   ar
    15    79    81   ar
    16    79    77   ar
    17    88    89    1
    18     3     2    1
    19    16    17    1
    20    73    76    1
    21    73    72    1
    22    81    82   ar
    23    20    21   ar
    24    17    19   ar
    25    91    89   am
    26    76    77    1
    27    89    90    2
    28    77    78   ar
    29    21    19   ar
    30     5     2    1
    31     5     6    1
    32     2     1    1
    33    11     9    1
    34    82    80   ar
    35    10     9    1
    36     9     8    2
    37    29    27   ar
    38    78    80   ar
    39     8     7    1
    40     7     6    1
    41    28    27   ar
    42    27    26    1
    43    22    23    1
    44    26    23    1
    45    71    69   ar
    46    23    24    1
    47    62    61    1
    48    68    69    1
    49    68    67    1
    50    69    70   ar
    51    57    56    2
    52    61    60    1
    53    24    30   am
    54    24    25    2
    55    56    55    1
    56    56    63   am
    57    64    67    1
    58    64    63    1
    59    64    65    1
    60    60    59    1
    61    30    31    1
    62    55    54    1
    63    55    58    1
    64    66    65    2
    65    58    59    1
    66    31    32    1
    67    31    34    1
    68    35    34    1
    69    32    33    2
    70    52    51    1
    71    53    51    1
    72    51    48    1
    73    40    37    1
    74    40    41    1
    75    43    41   ar
    76    43    45   ar
    77    36    37    1
    78    38    37    1
    79    38    39    2
    80    41    42   ar
    81    45    46   ar
    82    48    49    1
    83    48    47    1
    84    49    50    2
    85    42    44   ar
    86    46    44   ar
