@<TRIPOS>MOLECULE
tmp/1v7zD00.pdb
 147 147 0 0 0
SMALL
GASTEIGER

@<TRIPOS>ATOM
      1  N         27.7690   -9.6060   20.1860 N.3    32  GLU32      -0.1245
      2  CA        28.4210   -9.4740   21.4810 C.3    32  GLU32       0.1567
      3  C         28.3630  -10.7910   22.2310 C.2    32  GLU32       0.2260
      4  O         27.3260  -11.4640   22.2270 O.2    32  GLU32      -0.2867
      5  CB        27.7160   -8.3890   22.2910 C.3    32  GLU32       0.0388
      6  CG        28.2840   -8.1450   23.6810 C.3    32  GLU32       0.1160
      7  CD        27.4810   -7.1440   24.4960 C.2    32  GLU32       0.3649
      8  OE1       28.1230   -6.3310   25.1890 O.co2  32  GLU32      -0.2457
      9  OE2       26.2160   -7.1330   24.4680 O.co2  32  GLU32      -0.2457
     10  N         27.7370  -13.4130   24.9420 N.3    34  HIS34      -0.1241
     11  CA        26.7000  -13.5370   25.9610 C.3    34  HIS34       0.1621
     12  C         26.9030  -14.8200   26.7730 C.2    34  HIS34       0.2264
     13  O         25.9750  -15.6090   26.9580 O.2    34  HIS34      -0.2867
     14  CB        25.3110  -13.5130   25.3280 C.3    34  HIS34       0.0745
     15  CG        24.7790  -12.1350   25.0840 C.ar   34  HIS34       0.0817
     16  ND1       25.0940  -11.4060   23.9570 N.ar   34  HIS34      -0.2268
     17  CD2       23.9390  -11.3620   25.8100 C.ar   34  HIS34       0.1154
     18  CE1       24.4740  -10.2410   24.0020 C.ar   34  HIS34       0.1986
     19  NE2       23.7740  -10.1790   25.1210 N.ar   34  HIS34      -0.2212
     20  N         21.2380   -9.4570   21.1620 N.3    43  ASP43      -0.1239
     21  CA        20.7790   -8.0680   21.1910 C.3    43  ASP43       0.1674
     22  C         20.0920   -7.6030   19.9040 C.2    43  ASP43       0.2266
     23  O         19.4530   -6.5580   19.9150 O.2    43  ASP43      -0.2867
     24  CB        21.9240   -7.1030   21.4940 C.3    43  ASP43       0.1410
     25  CG        22.5090   -7.2810   22.8760 C.2    43  ASP43       0.3668
     26  OD1       22.0120   -8.1200   23.6680 O.co2  43  ASP43      -0.2456
     27  OD2       23.4990   -6.6210   23.2510 O.co2  43  ASP43      -0.2456
     28  N         28.4810   -3.0290   31.8380 N.3    76  SER76      -0.1202
     29  CA        27.1850   -3.3090   31.2270 C.3    76  SER76       0.2020
     30  C         27.1730   -4.4440   30.1950 C.2    76  SER76       0.2619
     31  O         26.1030   -4.8810   29.7990 O.2    76  SER76      -0.2717
     32  CB        26.6280   -2.0320   30.5900 C.3    76  SER76       0.2103
     33  OG        27.6010   -1.4300   29.7580 O.3    76  SER76      -0.2182
     34  N         28.3360   -4.9150   29.7560 N.am   77  GLY77      -0.1956
     35  CA        28.4130   -5.9430   28.7240 C.3    77  GLY77       0.1869
     36  C         29.6350   -6.8470   28.7750 C.2    77  GLY77       0.2309
     37  O         29.8690   -7.6140   27.8390 O.2    77  GLY77      -0.2863
     38  N         18.4130   -2.7590   21.9110 N.3   117  GLY117     -0.1210
     39  CA        18.6240   -4.0100   22.6190 C.3   117  GLY117      0.1956
     40  C         20.0110   -4.2170   23.2010 C.2   117  GLY117      0.2612
     41  O         20.2890   -5.2750   23.7630 O.2   117  GLY117     -0.2717
     42  N         20.8870   -3.2170   23.0710 N.am  118  HIS118     -0.1961
     43  CA        22.2520   -3.2870   23.5770 C.3   118  HIS118      0.1787
     44  C         22.5100   -2.0260   24.3830 C.2   118  HIS118      0.2620
     45  O         22.4910   -0.9180   23.8450 O.2   118  HIS118     -0.2715
     46  CB        23.2190   -3.3940   22.4130 C.3   118  HIS118      0.0785
     47  CG        24.6700   -3.3260   22.7820 C.ar  118  HIS118      0.0821
     48  ND1       25.3570   -4.3810   23.3510 N.ar  118  HIS118     -0.2267
     49  CD2       25.5830   -2.3470   22.5890 C.ar  118  HIS118      0.1154
     50  CE1       26.6290   -4.0480   23.4920 C.ar  118  HIS118      0.1986
     51  NE2       26.7930   -2.8240   23.0270 N.ar  118  HIS118     -0.2212
     52  N         22.7310   -2.2080   25.6780 N.am  119  TYR119     -0.1960
     53  CA        22.7860   -1.1210   26.6450 C.3   119  TYR119      0.1771
     54  C         23.6230    0.0780   26.1890 C.2   119  TYR119      0.2619
     55  O         23.2020    1.2270   26.3190 O.2   119  TYR119     -0.2715
     56  CB        23.3590   -1.6560   27.9540 C.3   119  TYR119      0.0574
     57  CG        23.1150   -0.7760   29.1500 C.ar  119  TYR119     -0.0198
     58  CD1       21.9690   -0.9310   29.9310 C.ar  119  TYR119     -0.0009
     59  CD2       24.0280    0.2090   29.5100 C.ar  119  TYR119     -0.0009
     60  CE1       21.7390   -0.1210   31.0330 C.ar  119  TYR119      0.0417
     61  CE2       23.8060    1.0250   30.6110 C.ar  119  TYR119      0.0417
     62  CZ        22.6620    0.8480   31.3710 C.ar  119  TYR119      0.1957
     63  OH        22.4320    1.6500   32.4690 O.3   119  TYR119     -0.2866
     64  N         24.7820   -0.2260   25.6290 N.am  120  GLU120     -0.1977
     65  CA        25.8030    0.7710   25.2860 C.3   120  GLU120      0.1602
     66  C         25.4370    1.6540   24.0870 C.2   120  GLU120      0.2287
     67  O         26.0680    2.6870   23.8550 O.2   120  GLU120     -0.2864
     68  CB        27.1190    0.0530   24.9820 C.3   120  GLU120      0.0415
     69  CG        27.8240   -0.5420   26.1910 C.3   120  GLU120      0.1163
     70  CD        27.3610   -1.9450   26.5830 C.2   120  GLU120      0.3649
     71  OE1       26.2720   -2.4040   26.1440 O.co2 120  GLU120     -0.2457
     72  OE2       28.1000   -2.5920   27.3570 O.co2 120  GLU120     -0.2457
     73  N         13.7240   -3.3830   27.8180 N.3   152  TRP152     -0.1241
     74  CA        13.7100   -3.8280   29.2210 C.3   152  TRP152      0.1605
     75  C         13.1530   -2.8160   30.2250 C.2   152  TRP152      0.2264
     76  O         12.6820   -3.2110   31.2940 O.2   152  TRP152     -0.2867
     77  CB        15.0960   -4.2890   29.6770 C.3   152  TRP152      0.0550
     78  CG        16.2060   -3.3080   29.4000 C.ar  152  TRP152      0.0003
     79  CD1       16.4900   -2.1750   30.0900 C.ar  152  TRP152      0.0946
     80  CD2       17.1810   -3.3960   28.3550 C.ar  152  TRP152      0.0152
     81  NE1       17.5840   -1.5440   29.5410 N.ar  152  TRP152     -0.2442
     82  CE2       18.0270   -2.2730   28.4730 C.ar  152  TRP152      0.0810
     83  CE3       17.4260   -4.3130   27.3290 C.ar  152  TRP152      0.0012
     84  CZ2       19.0970   -2.0410   27.6020 C.ar  152  TRP152      0.0191
     85  CZ3       18.4890   -4.0830   26.4630 C.ar  152  TRP152      0.0001
     86  CH2       19.3110   -2.9550   26.6090 C.ar  152  TRP152      0.0015
     87  N         19.5370   -2.9370   35.2320 N.3   172  TRP172     -0.1227
     88  CA        19.5620   -3.3900   33.8480 C.3   172  TRP172      0.1737
     89  C         20.9710   -3.4420   33.2730 C.2   172  TRP172      0.2595
     90  O         21.2270   -4.1880   32.3360 O.2   172  TRP172     -0.2718
     91  CB        18.6710   -2.4980   32.9890 C.3   172  TRP172      0.0564
     92  CG        17.2260   -2.6360   33.3230 C.ar  172  TRP172      0.0003
     93  CD1       16.3750   -1.6440   33.6920 C.ar  172  TRP172      0.0946
     94  CD2       16.4530   -3.8440   33.3120 C.ar  172  TRP172      0.0152
     95  NE1       15.1180   -2.1540   33.9130 N.ar  172  TRP172     -0.2442
     96  CE2       15.1390   -3.5040   33.6830 C.ar  172  TRP172      0.0810
     97  CE3       16.7400   -5.1840   33.0210 C.ar  172  TRP172      0.0012
     98  CZ2       14.1130   -4.4540   33.7820 C.ar  172  TRP172      0.0191
     99  CZ3       15.7210   -6.1250   33.1150 C.ar  172  TRP172      0.0001
    100  CH2       14.4250   -5.7520   33.4880 C.ar  172  TRP172      0.0015
    101  N         21.8810   -2.6450   33.8230 N.am  173  ASP173     -0.1974
    102  CA        23.2910   -2.7380   33.4250 C.3   173  ASP173      0.1709
    103  C         23.8890   -4.1350   33.6370 C.2   173  ASP173      0.2293
    104  O         24.5640   -4.6550   32.7530 O.2   173  ASP173     -0.2864
    105  CB        24.1650   -1.6610   34.0920 C.3   173  ASP173      0.1436
    106  CG        23.8900   -1.4910   35.5730 C.2   173  ASP173      0.3671
    107  OD1       24.4900   -0.5760   36.1740 O.co2 173  ASP173     -0.2456
    108  OD2       23.0950   -2.1980   36.2210 O.co2 173  ASP173     -0.2456
    109  N         22.2720   -6.9480   33.8470 N.3   175  GLU175     -0.1231
    110  CA        21.5080   -7.9590   33.1150 C.3   175  GLU175      0.1699
    111  C         22.1280   -8.2080   31.7410 C.2   175  GLU175      0.2592
    112  O         21.4720   -8.0340   30.6990 O.2   175  GLU175     -0.2718
    113  CB        20.0350   -7.5470   32.9590 C.3   175  GLU175      0.0402
    114  CG        19.1480   -7.9480   34.1220 C.3   175  GLU175      0.1161
    115  CD        19.1470   -9.4450   34.3920 C.2   175  GLU175      0.3649
    116  OE1       18.8480   -9.8160   35.5400 O.co2 175  GLU175     -0.2457
    117  OE2       19.4400  -10.2520   33.4800 O.co2 175  GLU175     -0.2457
    118  N         23.3920   -8.6140   31.7430 N.am  176  HIS176     -0.1976
    119  CA        24.0460   -9.0710   30.5390 C.3   176  HIS176      0.1656
    120  C         24.2460  -10.5760   30.6180 C.2   176  HIS176      0.2291
    121  O         25.0940  -11.0630   31.3680 O.2   176  HIS176     -0.2864
    122  CB        25.3990   -8.4060   30.3490 C.3   176  HIS176      0.0771
    123  CG        26.0840   -8.8480   29.1000 C.ar  176  HIS176      0.0820
    124  ND1       25.5880   -8.5690   27.8440 N.ar  176  HIS176     -0.2267
    125  CD2       27.1820   -9.6120   28.9110 C.ar  176  HIS176      0.1154
    126  CE1       26.3710   -9.1210   26.9370 C.ar  176  HIS176      0.1986
    127  NE2       27.3450   -9.7580   27.5570 N.ar  176  HIS176     -0.2212
    128  N         17.2100  -12.2220   32.6010 N.3   180  PHE180     -0.1227
    129  CA        16.2830  -11.5010   31.7400 C.3   180  PHE180      0.1736
    130  C         16.4230  -11.9230   30.2790 C.2   180  PHE180      0.2595
    131  O         15.4510  -12.3500   29.6560 O.2   180  PHE180     -0.2718
    132  CB        16.4980   -9.9890   31.8800 C.3   180  PHE180      0.0547
    133  CG        15.6040   -9.1680   31.0080 C.ar  180  PHE180     -0.0202
    134  CD1       16.0440   -8.7280   29.7650 C.ar  180  PHE180     -0.0042
    135  CD2       14.3290   -8.8260   31.4210 C.ar  180  PHE180     -0.0042
    136  CE1       15.2310   -7.9700   28.9580 C.ar  180  PHE180     -0.0003
    137  CE2       13.5030   -8.0640   30.6130 C.ar  180  PHE180     -0.0003
    138  CZ        13.9570   -7.6310   29.3760 C.ar  180  PHE180     -0.0000
    139  N         17.6310  -11.7970   29.7420 N.am  181  GLU181     -0.1979
    140  CA        17.8900  -12.1120   28.3390 C.3   181  GLU181      0.1602
    141  C         17.8040  -13.6070   28.0640 C.2   181  GLU181      0.2287
    142  O         17.3110  -14.0180   27.0160 O.2   181  GLU181     -0.2864
    143  CB        19.2720  -11.6200   27.9180 C.3   181  GLU181      0.0415
    144  CG        19.3640  -10.1180   27.7370 C.3   181  GLU181      0.1163
    145  CD        20.6990   -9.6980   27.1650 C.2   181  GLU181      0.3649
    146  OE1       20.7240   -8.9610   26.1570 O.co2 181  GLU181     -0.2457
    147  OE2       21.7240  -10.1100   27.7220 O.co2 181  GLU181     -0.2457
@<TRIPOS>BOND
     1    22    23    2
     2    22    21    1
     3     1     2    1
     4    20    21    1
     5    21    24    1
     6     2     3    1
     7     2     5    1
     8    24    25    1
     9    38    39    1
    10     4     3    2
    11     5     6    1
    12    46    47    1
    13    46    43    1
    14    49    47   ar
    15    49    51   ar
    16    39    40    1
    17    47    48   ar
    18    25    27   ar
    19    25    26   ar
    20    51    50   ar
    21    42    40   am
    22    42    43    1
    23    40    41    2
    24    48    50   ar
    25    43    44    1
    26     6     7    1
    27    45    44    2
    28    67    66    2
    29    16    18   ar
    30    16    15   ar
    31    18    19   ar
    32    66    65    1
    33    44    52   am
    34     9     7   ar
    35     7     8   ar
    36    10    11    1
    37    68    65    1
    38    68    69    1
    39    15    14    1
    40    15    17   ar
    41    19    17   ar
    42    65    64    1
    43    14    11    1
    44    64    54   am
    45    52    53    1
    46    11    12    1
    47    71    70   ar
    48   146   145   ar
    49    54    55    2
    50    54    53    1
    51    69    70    1
    52    85    86   ar
    53    85    83   ar
    54    70    72   ar
    55    86    84   ar
    56    53    56    1
    57    12    13    2
    58   126   127   ar
    59   126   124   ar
    60   142   141    2
    61   145   147   ar
    62   145   144    1
    63    83    80   ar
    64   127   125   ar
    65    84    82   ar
    66   144   143    1
    67    73    74    1
    68    37    36    2
    69   124   123   ar
    70   143   140    1
    71    56    57    1
    72   141   140    1
    73   140   139    1
    74    80    82   ar
    75    80    78   ar
    76    82    81   ar
    77    35    36    1
    78    35    34    1
    79   125   123   ar
    80   136   138   ar
    81   136   134   ar
    82   123   122    1
    83    57    59   ar
    84    57    58   ar
    85    74    77    1
    86    74    75    1
    87   138   137   ar
    88    78    77    1
    89    78    79   ar
    90    59    61   ar
    91    81    79   ar
    92   131   130    2
    93   139   130   am
    94    34    30   am
    95    33    32    1
    96   134   133   ar
    97    31    30    2
    98    58    60   ar
    99    30    29    1
   100    75    76    2
   101   130   129    1
   102   122   119    1
   103   119   120    1
   104   119   118    1
   105    32    29    1
   106    61    62   ar
   107   137   135   ar
   108   120   121    2
   109   112   111    2
   110   133   135   ar
   111   133   132    1
   112    60    62   ar
   113    29    28    1
   114    62    63    1
   115   129   132    1
   116   129   128    1
   117   111   118   am
   118   111   110    1
   119    90    89    2
   120   104   103    2
   121   113   110    1
   122   113   114    1
   123    91    92    1
   124    91    88    1
   125    97    99   ar
   126    97    94   ar
   127   110   109    1
   128    99   100   ar
   129    89   101   am
   130    89    88    1
   131    94    92   ar
   132    94    96   ar
   133    92    93   ar
   134   102   103    1
   135   102   101    1
   136   102   105    1
   137   117   115   ar
   138   100    98   ar
   139    96    98   ar
   140    96    95   ar
   141    93    95   ar
   142    88    87    1
   143   105   106    1
   144   114   115    1
   145   115   116   ar
   146   106   107   ar
   147   106   108   ar
