@<TRIPOS>MOLECULE
tmp/1v83A01.pdb
 134 128 0 0 0
SMALL
GASTEIGER

@<TRIPOS>ATOM
      1  N         31.9850   18.1270   31.6590 N.3     9  PRO9       -0.2102
      2  CA        31.7600   19.4540   32.2280 C.3     9  PRO9        0.1504
      3  C         30.6080   19.2660   33.2100 C.2     9  PRO9        0.2576
      4  O         29.7330   18.4190   32.9930 O.2     9  PRO9       -0.2718
      5  CB        31.3600   20.2940   31.0140 C.3     9  PRO9        0.0282
      6  CG        30.7570   19.2940   30.0780 C.3     9  PRO9        0.0208
      7  CD        31.6630   18.1040   30.2220 C.3     9  PRO9        0.0893
      8  N         30.6160   20.0240   34.2970 N.am   10  THR10      -0.1939
      9  CA        29.5490   19.9240   35.2780 C.3    10  THR10       0.2028
     10  C         29.4180   21.2640   35.9790 C.2    10  THR10       0.2642
     11  O         30.3640   22.0530   36.0020 O.2    10  THR10      -0.2714
     12  CB        29.8330   18.8130   36.3150 C.3    10  THR10       0.1808
     13  OG1       28.6670   18.6070   37.1220 O.3    10  THR10      -0.2208
     14  CG2       31.0110   19.1850   37.2070 C.3    10  THR10       0.0379
     15  N         28.2380   21.5270   36.5260 N.am   11  TYR11      -0.1973
     16  CA        27.9950   22.7820   37.2160 C.3    11  TYR11       0.1639
     17  C         27.0800   22.5520   38.4030 C.2    11  TYR11       0.2290
     18  O         26.3370   21.5680   38.4550 O.2    11  TYR11      -0.2864
     19  CB        27.3690   23.8110   36.2650 C.3    11  TYR11       0.0560
     20  CG        25.9620   23.4780   35.8100 C.ar   11  TYR11      -0.0198
     21  CD1       24.8960   24.3310   36.0950 C.ar   11  TYR11      -0.0009
     22  CD2       25.6980   22.3210   35.0770 C.ar   11  TYR11      -0.0009
     23  CE1       23.6020   24.0390   35.6560 C.ar   11  TYR11       0.0417
     24  CE2       24.4060   22.0230   34.6340 C.ar   11  TYR11       0.0417
     25  CZ        23.3650   22.8880   34.9260 C.ar   11  TYR11       0.1957
     26  OH        22.0920   22.5990   34.4640 O.3    11  TYR11      -0.2866
     27  N         24.0170   22.7210   40.6810 N.3    13  ARG13      -0.1245
     28  CA        22.5700   22.8730   40.6080 C.3    13  ARG13       0.1563
     29  C         22.0230   21.6910   41.4020 C.2    13  ARG13       0.2260
     30  O         22.7230   20.7010   41.6000 O.2    13  ARG13      -0.2867
     31  CB        22.0480   22.9070   39.1590 C.3    13  ARG13       0.0307
     32  CG        21.8560   21.5790   38.4390 C.3    13  ARG13       0.0489
     33  CD        23.1660   20.9730   37.9750 C.3    13  ARG13       0.2205
     34  NE        22.9290   19.9460   36.9640 N.pl3  13  ARG13      -0.0865
     35  CZ        23.8770   19.1800   36.4390 C.cat  13  ARG13       0.5346
     36  NH1       25.1330   19.3220   36.8310 N.pl3  13  ARG13       0.1354
     37  NH2       23.5650   18.2730   35.5210 N.pl3  13  ARG13       0.1354
     38  N         32.1760   24.1200   36.0830 N.3    40  ASP40      -0.1239
     39  CA        31.8900   25.4410   35.5480 C.3    40  ASP40       0.1674
     40  C         31.7100   26.2880   36.8080 C.2    40  ASP40       0.2266
     41  O         30.5880   26.5540   37.2400 O.2    40  ASP40      -0.2867
     42  CB        30.5960   25.4010   34.7300 C.3    40  ASP40       0.1410
     43  CG        30.2030   26.7570   34.1720 C.2    40  ASP40       0.3668
     44  OD1       29.2290   26.8110   33.3910 O.co2  40  ASP40      -0.2456
     45  OD2       30.8580   27.7650   34.5100 O.co2  40  ASP40      -0.2456
     46  N         26.7190   33.6010   29.8540 N.3    71  LYS71      -0.1245
     47  CA        25.5160   32.8090   30.0960 C.3    71  LYS71       0.1561
     48  C         24.2550   33.6580   30.0180 C.2    71  LYS71       0.2260
     49  O         23.1420   33.1350   30.0980 O.2    71  LYS71      -0.2867
     50  CB        25.5850   32.1340   31.4690 C.3    71  LYS71       0.0271
     51  CG        26.6500   31.0610   31.5880 C.3    71  LYS71       0.0035
     52  CD        26.7100   30.5050   33.0010 C.3    71  LYS71       0.0206
     53  CE        27.7940   29.4480   33.1300 C.3    71  LYS71       0.1093
     54  NZ        27.9120   28.9390   34.5240 N.3    71  LYS71      -0.1314
     55  N         26.5530   24.9540   26.0510 N.3    76  ARG76      -0.1231
     56  CA        26.8250   24.6270   27.4420 C.3    76  ARG76       0.1694
     57  C         28.0480   23.7180   27.5510 C.2    76  ARG76       0.2592
     58  O         28.1970   22.7740   26.7740 O.2    76  ARG76      -0.2718
     59  CB        25.6070   23.9230   28.0360 C.3    76  ARG76       0.0321
     60  CG        24.2920   24.5650   27.6370 C.3    76  ARG76       0.0489
     61  CD        23.8290   25.5800   28.6560 C.3    76  ARG76       0.2205
     62  NE        22.9870   24.9570   29.6730 N.pl3  76  ARG76      -0.0865
     63  CZ        21.7840   24.4470   29.4290 C.cat  76  ARG76       0.5346
     64  NH1       21.2800   24.4890   28.2010 N.pl3  76  ARG76       0.1354
     65  NH2       21.0890   23.8830   30.4100 N.pl3  76  ARG76       0.1354
     66  N         28.9150   24.0110   28.5160 N.am   77  GLY77      -0.1957
     67  CA        30.1020   23.2010   28.7340 C.3    77  GLY77       0.1869
     68  C         31.2540   23.4130   27.7670 C.2    77  GLY77       0.2309
     69  O         32.2900   22.7630   27.8930 O.2    77  GLY77      -0.2863
     70  N         34.5460   24.4370   29.2800 N.3    80  GLN80      -0.1231
     71  CA        35.0040   23.3340   30.1110 C.3    80  GLN80       0.1698
     72  C         35.6500   22.2260   29.2720 C.2    80  GLN80       0.2592
     73  O         36.6720   21.6620   29.6630 O.2    80  GLN80      -0.2718
     74  CB        33.8360   22.7730   30.9330 C.3    80  GLN80       0.0381
     75  CG        33.3050   23.7230   32.0060 C.3    80  GLN80       0.0905
     76  CD        32.6610   24.9750   31.4340 C.2    80  GLN80       0.2608
     77  OE1       31.7910   24.8980   30.5710 O.2    80  GLN80      -0.2717
     78  NE2       33.0730   26.1370   31.9310 N.am   80  GLN80      -0.0878
     79  N         35.0610   21.9060   28.1230 N.am   81  ARG81      -0.1980
     80  CA        35.6430   20.8720   27.2680 C.3    81  ARG81       0.1597
     81  C         36.9650   21.3670   26.7020 C.2    81  ARG81       0.2287
     82  O         37.9310   20.6140   26.6160 O.2    81  ARG81      -0.2864
     83  CB        34.6900   20.5040   26.1270 C.3    81  ARG81       0.0334
     84  CG        33.3510   19.9870   26.6260 C.3    81  ARG81       0.0492
     85  CD        32.4700   19.4160   25.5260 C.3    81  ARG81       0.2205
     86  NE        31.1380   19.1500   26.0650 N.pl3  81  ARG81      -0.0865
     87  CZ        30.1510   20.0410   26.0900 C.cat  81  ARG81       0.5346
     88  NH1       30.3400   21.2540   25.5850 N.pl3  81  ARG81       0.1354
     89  NH2       28.9890   19.7380   26.6620 N.pl3  81  ARG81       0.1354
     90  N         28.7310   14.2820   28.7870 N.3   106  ASP106     -0.1225
     91  CA        27.9700   15.2130   29.6220 C.3   106  ASP106      0.1805
     92  C         27.4660   14.4770   30.8650 C.2   106  ASP106      0.2598
     93  O         27.2900   13.2580   30.8260 O.2   106  ASP106     -0.2718
     94  CB        26.8110   15.8020   28.8140 C.3   106  ASP106      0.1424
     95  CG        27.2870   16.7770   27.7420 C.2   106  ASP106      0.3668
     96  OD1       26.4600   17.1930   26.9040 O.co2 106  ASP106     -0.2456
     97  OD2       28.4880   17.1380   27.7430 O.co2 106  ASP106     -0.2456
     98  N         27.2170   15.1960   31.9610 N.am  107  ASP107     -0.1960
     99  CA        26.7960   14.5140   33.1860 C.3   107  ASP107      0.1840
    100  C         25.3500   14.0430   33.3250 C.2   107  ASP107      0.2622
    101  O         24.9960   13.4590   34.3520 O.2   107  ASP107     -0.2715
    102  CB        27.2290   15.3160   34.4420 C.3   107  ASP107      0.1450
    103  CG        26.5250   16.6650   34.5890 C.2   107  ASP107      0.3671
    104  OD1       25.6820   17.0320   33.7430 O.co2 107  ASP107     -0.2456
    105  OD2       26.8280   17.3660   35.5820 O.co2 107  ASP107     -0.2456
    106  N         24.5180   14.2490   32.3070 N.am  108  ASP108     -0.1971
    107  CA        23.1290   13.7920   32.3920 C.3   108  ASP108      0.1709
    108  C         22.7630   12.6530   31.4310 C.2   108  ASP108      0.2293
    109  O         21.6780   12.0910   31.5300 O.2   108  ASP108     -0.2864
    110  CB        22.1540   14.9640   32.2110 C.3   108  ASP108      0.1436
    111  CG        22.3490   15.6950   30.9030 C.2   108  ASP108      0.3671
    112  OD1       23.4580   15.6140   30.3310 O.co2 108  ASP108     -0.2456
    113  OD2       21.3900   16.3640   30.4570 O.co2 108  ASP108     -0.2456
    114  N         20.8050   10.2080   25.1550 N.3   222  HIS222     -0.1241
    115  CA        20.8410   11.6280   25.5160 C.3   222  HIS222      0.1621
    116  C         19.6780   11.9780   26.4500 C.2   222  HIS222      0.2264
    117  O         18.8030   12.7800   26.1130 O.2   222  HIS222     -0.2867
    118  CB        20.7850   12.4960   24.2450 C.3   222  HIS222      0.0745
    119  CG        21.1190   13.9390   24.4770 C.ar  222  HIS222      0.0817
    120  ND1       20.1980   14.8570   24.9360 N.ar  222  HIS222     -0.2268
    121  CD2       22.2720   14.6250   24.2950 C.ar  222  HIS222      0.1154
    122  CE1       20.7680   16.0460   25.0210 C.ar  222  HIS222      0.1986
    123  NE2       22.0270   15.9330   24.6380 N.ar  222  HIS222     -0.2212
    124  N         17.7290   13.5450   29.7320 N.3   224  ARG224     -0.1245
    125  CA        17.7530   14.8470   30.3940 C.3   224  ARG224      0.1563
    126  C         16.9940   14.7020   31.7090 C.2   224  ARG224      0.2260
    127  O         15.9770   14.0060   31.7720 O.2   224  ARG224     -0.2867
    128  CB        17.0480   15.8980   29.5320 C.3   224  ARG224      0.0307
    129  CG        17.4240   15.8550   28.0620 C.3   224  ARG224      0.0489
    130  CD        18.5950   16.7520   27.7270 C.3   224  ARG224      0.2205
    131  NE        18.2460   18.1730   27.7460 N.pl3 224  ARG224     -0.0865
    132  CZ        18.2130   18.9320   28.8380 C.cat 224  ARG224      0.5346
    133  NH1       18.5090   18.4130   30.0210 N.pl3 224  ARG224      0.1354
    134  NH2       17.8890   20.2150   28.7470 N.pl3 224  ARG224      0.1354
@<TRIPOS>BOND
     1   118   119    1
     2   118   115    1
     3   121   119   ar
     4   121   123   ar
     5   119   120   ar
     6   123   122   ar
     7   120   122   ar
     8   114   115    1
     9   115   116    1
    10    85    86    1
    11    85    84    1
    12    88    87    1
    13    55    56    1
    14    86    87    2
    15    87    89    1
    16   117   116    2
    17    83    84    1
    18    83    80    1
    19    82    81    2
    20    81    80    1
    21    58    57    2
    22    96    95   ar
    23    80    79    1
    24    56    57    1
    25    56    59    1
    26    57    66   am
    27    60    59    1
    28    60    61    1
    29   130   131    1
    30   130   129    1
    31    95    97   ar
    32    95    94    1
    33   131   132    2
    34    68    69    2
    35    68    67    1
    36   129   128    1
    37    79    72   am
    38    64    63    1
    39    66    67    1
    40    61    62    1
    41   134   132    1
    42    90    91    1
    43    94    91    1
    44   132   133    1
    45    72    73    2
    46    72    71    1
    47    70    71    1
    48    63    62    2
    49    63    65    1
    50   128   125    1
    51    91    92    1
    52   124   125    1
    53    46    47    1
    54    48    47    1
    55    48    49    2
    56     6     7    1
    57     6     5    1
    58    47    50    1
    59    71    74    1
    60     7     1    1
    61   112   111   ar
    62   125   126    1
    63   113   111   ar
    64    77    76    2
    65    93    92    2
    66    92    98   am
    67   111   110    1
    68    74    75    1
    69     5     2    1
    70   108   109    2
    71   108   107    1
    72    76    78   am
    73    76    75    1
    74    50    51    1
    75    51    52    1
    76     1     2    1
    77   126   127    2
    78    98    99    1
    79   110   107    1
    80     2     3    1
    81   106   107    1
    82   106   100   am
    83     4     3    2
    84    52    53    1
    85    53    54    1
    86    99   100    1
    87    99   102    1
    88     3     8   am
    89   100   101    2
    90    44    43   ar
    91   104   103   ar
    92    43    45   ar
    93    43    42    1
    94     8     9    1
    95   102   103    1
    96    26    25    1
    97   103   105   ar
    98    24    25   ar
    99    24    22   ar
   100    42    39    1
   101    25    23   ar
   102    22    20   ar
   103     9    10    1
   104     9    12    1
   105    37    35    1
   106    39    38    1
   107    39    40    1
   108    23    21   ar
   109    20    21   ar
   110    20    19    1
   111    10    11    2
   112    10    15   am
   113    19    16    1
   114    12    13    1
   115    12    14    1
   116    35    36    1
   117    35    34    2
   118    15    16    1
   119    40    41    2
   120    34    33    1
   121    16    17    1
   122    33    32    1
   123    17    18    2
   124    32    31    1
   125    31    28    1
   126    28    27    1
   127    28    29    1
   128    29    30    2
