@<TRIPOS>MOLECULE
tmp/1v84A00.pdb
 107 100 0 0 0
SMALL
GASTEIGER

@<TRIPOS>ATOM
      1  N         24.9090   33.0090   21.2640 N.3    73  ARG73      -0.1245
      2  CA        24.6240   31.5820   21.3600 C.3    73  ARG73       0.1563
      3  C         25.9000   30.8060   21.6790 C.2    73  ARG73       0.2260
      4  O         26.7340   30.5780   20.7990 O.2    73  ARG73      -0.2867
      5  CB        24.0220   31.0840   20.0490 C.3    73  ARG73       0.0307
      6  CG        23.3750   29.7120   20.2610 C.3    73  ARG73       0.0489
      7  CD        23.0960   28.9100   19.0010 C.3    73  ARG73       0.2205
      8  NE        23.9730   29.2820   17.9070 N.pl3  73  ARG73      -0.0865
      9  CZ        23.6980   30.2770   17.0690 C.cat  73  ARG73       0.5346
     10  NH1       22.5670   30.9600   17.2250 N.pl3  73  ARG73       0.1354
     11  NH2       24.5920   30.6580   16.1580 N.pl3  73  ARG73       0.1354
     12  N         18.2690   12.5040   20.1940 N.3   133  VAL133     -0.1231
     13  CA        18.9270   13.7050   19.7020 C.3   133  VAL133      0.1692
     14  C         18.3300   14.0540   18.3460 C.2   133  VAL133      0.2593
     15  O         17.7480   13.1990   17.6810 O.2   133  VAL133     -0.2718
     16  CB        20.4600   13.5190   19.5440 C.3   133  VAL133      0.0266
     17  CG1       21.1170   13.4130   20.9180 C.3   133  VAL133      0.0020
     18  CG2       20.7550   12.2900   18.7050 C.3   133  VAL133      0.0020
     19  N         18.4570   15.3180   17.9570 N.am  134  GLY134     -0.1942
     20  CA        17.9270   15.7650   16.6800 C.3   134  GLY134      0.2014
     21  C         16.4480   15.4940   16.4800 C.2   134  GLY134      0.2639
     22  O         16.0150   15.2150   15.3610 O.2   134  GLY134     -0.2714
     23  N         15.6770   15.5810   17.5620 N.am  135  GLY135     -0.1954
     24  CA        14.2430   15.3480   17.4910 C.3   135  GLY135      0.1869
     25  C         13.8390   13.9560   17.0430 C.2   135  GLY135      0.2309
     26  O         12.7150   13.7500   16.5810 O.2   135  GLY135     -0.2863
     27  N         19.8330    9.1390   16.2760 N.3   139  GLU139     -0.1245
     28  CA        20.5080    9.5480   15.0500 C.3   139  GLU139      0.1567
     29  C         21.5960    8.5040   14.8550 C.2   139  GLU139      0.2260
     30  O         22.1920    8.0470   15.8260 O.2   139  GLU139     -0.2867
     31  CB        21.1450   10.9280   15.1950 C.3   139  GLU139      0.0388
     32  CG        20.1680   12.0890   15.1600 C.3   139  GLU139      0.1160
     33  CD        20.8870   13.4240   15.1030 C.2   139  GLU139      0.3649
     34  OE1       22.0520   13.4860   15.5550 O.co2 139  GLU139     -0.2457
     35  OE2       20.2920   14.4110   14.6100 O.co2 139  GLU139     -0.2457
     36  N         17.3520   14.1050   10.6290 N.3   155  VAL155     -0.1231
     37  CA        16.3570   14.9830   10.0180 C.3   155  VAL155      0.1692
     38  C         16.8620   16.4110   10.1450 C.2   155  VAL155      0.2592
     39  O         16.6570   17.2360    9.2550 O.2   155  VAL155     -0.2718
     40  CB        14.9760   14.8470   10.7010 C.3   155  VAL155      0.0266
     41  CG1       14.0260   15.9330   10.1940 C.3   155  VAL155      0.0020
     42  CG2       14.3910   13.4700   10.3980 C.3   155  VAL155      0.0020
     43  N         17.5170   16.7100   11.2620 N.am  156  PHE156     -0.1976
     44  CA        18.0820   18.0360   11.4400 C.3   156  PHE156      0.1639
     45  C         19.4140   18.0490   10.6900 C.2   156  PHE156      0.2290
     46  O         20.2820   17.2090   10.9290 O.2   156  PHE156     -0.2864
     47  CB        18.2930   18.3510   12.9220 C.3   156  PHE156      0.0560
     48  CG        19.2510   19.4780   13.1640 C.ar  156  PHE156     -0.0200
     49  CD1       20.5130   19.2250   13.6920 C.ar  156  PHE156     -0.0042
     50  CD2       18.9200   20.7840   12.8080 C.ar  156  PHE156     -0.0042
     51  CE1       21.4350   20.2530   13.8610 C.ar  156  PHE156     -0.0003
     52  CE2       19.8360   21.8230   12.9720 C.ar  156  PHE156     -0.0003
     53  CZ        21.0970   21.5570   13.4990 C.ar  156  PHE156     -0.0000
     54  N         25.3230   18.4210    7.1530 N.3   160  ARG160     -0.1245
     55  CA        26.4000   19.1590    7.8060 C.3   160  ARG160      0.1563
     56  C         27.6340   18.2520    7.7890 C.2   160  ARG160      0.2260
     57  O         27.5180   17.0420    7.5870 O.2   160  ARG160     -0.2867
     58  CB        26.0110   19.5320    9.2510 C.3   160  ARG160      0.0307
     59  CG        25.5180   18.3690   10.1030 C.3   160  ARG160      0.0489
     60  CD        24.8400   18.8020   11.4210 C.3   160  ARG160      0.2205
     61  NE        23.6740   17.9520   11.6880 N.pl3 160  ARG160     -0.0865
     62  CZ        23.3410   17.4370   12.8690 C.cat 160  ARG160      0.5346
     63  NH1       24.0810   17.6740   13.9460 N.pl3 160  ARG160      0.1354
     64  NH2       22.2660   16.6560   12.9620 N.pl3 160  ARG160      0.1354
     65  N         26.2300   14.7150   14.0300 N.3   164  ILE164     -0.1231
     66  CA        26.2690   13.8310   15.1760 C.3   164  ILE164      0.1692
     67  C         26.4000   14.6110   16.4780 C.2   164  ILE164      0.2592
     68  O         26.9800   15.6970   16.5200 O.2   164  ILE164     -0.2718
     69  CB        27.4440   12.8430   15.0360 C.3   164  ILE164      0.0266
     70  CG1       27.3940   11.7950   16.1500 C.3   164  ILE164      0.0019
     71  CG2       28.7680   13.6050   15.0630 C.3   164  ILE164      0.0020
     72  CD1       28.1940   10.5500   15.8360 C.3   164  ILE164      0.0001
     73  N         25.8370   14.0500   17.5380 N.am  165  ASP165     -0.1974
     74  CA        25.8790   14.6770   18.8420 C.3   165  ASP165      0.1709
     75  C         27.1960   14.4220   19.5670 C.2   165  ASP165      0.2293
     76  O         27.9250   13.4790   19.2610 O.2   165  ASP165     -0.2864
     77  CB        24.7240   14.1670   19.7040 C.3   165  ASP165      0.1436
     78  CG        24.7190   14.7910   21.0880 C.2   165  ASP165      0.3671
     79  OD1       25.0580   14.0980   22.0690 O.co2 165  ASP165     -0.2456
     80  OD2       24.3880   15.9870   21.1850 O.co2 165  ASP165     -0.2456
     81  N         23.5900   27.0180   14.9250 N.3   191  GLY191     -0.1210
     82  CA        23.1660   26.1710   16.0210 C.3   191  GLY191      0.1956
     83  C         23.2600   24.7190   15.5930 C.2   191  GLY191      0.2612
     84  O         22.7990   24.3580   14.5090 O.2   191  GLY191     -0.2717
     85  N         23.8730   23.8880   16.4320 N.am  192  GLY192     -0.1956
     86  CA        24.0070   22.4750   16.1210 C.3   192  GLY192      0.1869
     87  C         25.2000   22.1080   15.2560 C.2   192  GLY192      0.2309
     88  O         25.2630   20.9990   14.7220 O.2   192  GLY192     -0.2863
     89  N         29.8710   20.3840   17.0940 N.3   195  GLU195     -0.1245
     90  CA        30.5690   19.1080   16.9660 C.3   195  GLU195      0.1567
     91  C         31.3290   19.1110   15.6300 C.2   195  GLU195      0.2260
     92  O         32.4750   18.6680   15.5620 O.2   195  GLU195     -0.2867
     93  CB        29.5820   17.9260   17.0160 C.3   195  GLU195      0.0388
     94  CG        28.9430   17.6390   18.3930 C.3   195  GLU195      0.1160
     95  CD        27.6920   18.4640   18.6740 C.2   195  GLU195      0.3649
     96  OE1       27.0230   18.2030   19.7030 O.co2 195  GLU195     -0.2457
     97  OE2       27.3760   19.3680   17.8730 O.co2 195  GLU195     -0.2457
     98  N         20.6940   10.2240   25.1060 N.3   222  HIS222     -0.1241
     99  CA        20.7410   11.6380   25.4670 C.3   222  HIS222      0.1621
    100  C         19.5760   11.9900   26.3960 C.2   222  HIS222      0.2264
    101  O         18.7360   12.8250   26.0750 O.2   222  HIS222     -0.2867
    102  CB        20.7010   12.5040   24.1990 C.3   222  HIS222      0.0745
    103  CG        21.0560   13.9420   24.4290 C.ar  222  HIS222      0.0817
    104  ND1       20.1410   14.8790   24.8610 N.ar  222  HIS222     -0.2268
    105  CD2       22.2220   14.6090   24.2580 C.ar  222  HIS222      0.1154
    106  CE1       20.7260   16.0610   24.9380 C.ar  222  HIS222      0.1986
    107  NE2       21.9900   15.9250   24.5760 N.ar  222  HIS222     -0.2212
@<TRIPOS>BOND
     1    54    55    1
     2    57    56    2
     3    56    55    1
     4    55    58    1
     5    58    59    1
     6    39    38    2
     7    37    38    1
     8    37    36    1
     9    37    40    1
    10    59    60    1
    11    38    43   am
    12    41    40    1
    13    42    40    1
    14    45    46    2
    15    45    44    1
    16    43    44    1
    17    60    61    1
    18    44    47    1
    19    61    62    2
    20    50    52   ar
    21    50    48   ar
    22    62    64    1
    23    62    63    1
    24    47    48    1
    25    52    53   ar
    26    48    49   ar
    27    53    51   ar
    28    49    51   ar
    29    65    66    1
    30    84    83    2
    31    35    33   ar
    32    88    87    2
    33    29    28    1
    34    29    30    2
    35    81    82    1
    36    69    71    1
    37    69    66    1
    38    69    70    1
    39    28    31    1
    40    28    27    1
    41    33    32    1
    42    33    34   ar
    43    32    31    1
    44    66    67    1
    45    87    86    1
    46    22    21    2
    47    92    91    2
    48    83    82    1
    49    83    85   am
    50    91    90    1
    51    72    70    1
    52    86    85    1
    53    11     9    1
    54    67    68    2
    55    67    73   am
    56    21    20    1
    57    21    23   am
    58    26    25    2
    59    20    19    1
    60    90    93    1
    61    90    89    1
    62    93    94    1
    63    25    24    1
    64     9    10    1
    65     9     8    2
    66    24    23    1
    67    73    74    1
    68    15    14    2
    69    97    95   ar
    70     8     7    1
    71    19    14   am
    72    14    13    1
    73    94    95    1
    74    95    96   ar
    75    18    16    1
    76    74    75    1
    77    74    77    1
    78     7     6    1
    79    76    75    2
    80    16    13    1
    81    16    17    1
    82    13    12    1
    83    77    78    1
    84     5     6    1
    85     5     2    1
    86     4     3    2
    87    78    80   ar
    88    78    79   ar
    89     1     2    1
    90     2     3    1
    91   102   103    1
    92   102    99    1
    93   105   103   ar
    94   105   107   ar
    95   103   104   ar
    96   107   106   ar
    97   104   106   ar
    98    98    99    1
    99    99   100    1
   100   101   100    2
