@<TRIPOS>MOLECULE
tmp/1v8bC01.pdb
 157 146 0 0 0
SMALL
GASTEIGER

@<TRIPOS>ATOM
      1  N          4.6760   60.8290   68.8740 N.3    50  LEU50      -0.1231
      2  CA         5.4330   60.1440   67.8450 C.3    50  LEU50       0.1693
      3  C          6.4390   59.1770   68.4690 C.2    50  LEU50       0.2592
      4  O          6.9640   59.4370   69.5570 O.2    50  LEU50      -0.2718
      5  CB         6.1440   61.2000   66.9970 C.3    50  LEU50       0.0284
      6  CG         6.9640   60.7950   65.7750 C.3    50  LEU50       0.0019
      7  CD1        6.8610   61.8960   64.7370 C.3    50  LEU50       0.0001
      8  CD2        8.4100   60.5370   66.1770 C.3    50  LEU50       0.0001
      9  N          6.7030   58.0700   67.7760 N.am   51  HIS51      -0.1976
     10  CA         7.6430   57.0440   68.2360 C.3    51  HIS51       0.1656
     11  C          8.8310   57.6340   68.9690 C.2    51  HIS51       0.2291
     12  O          9.6330   58.3840   68.4000 O.2    51  HIS51      -0.2864
     13  CB         8.1320   56.2270   67.0470 C.3    51  HIS51       0.0771
     14  CG         7.0240   55.6340   66.2420 C.ar   51  HIS51       0.0820
     15  ND1        6.2500   54.5920   66.7020 N.ar   51  HIS51      -0.2267
     16  CD2        6.5200   55.9740   65.0330 C.ar   51  HIS51       0.1154
     17  CE1        5.3160   54.3150   65.8120 C.ar   51  HIS51       0.1986
     18  NE2        5.4570   55.1410   64.7880 N.ar   51  HIS51      -0.2212
     19  N         11.9450   57.2680   69.7480 N.3    53  THR53      -0.1218
     20  CA        13.1950   56.6100   69.3720 C.3    53  THR53       0.1862
     21  C         14.3120   57.6370   69.4310 C.2    53  THR53       0.2287
     22  O         14.0760   58.8120   69.6910 O.2    53  THR53      -0.2866
     23  CB        13.1550   56.1180   67.9160 C.3    53  THR53       0.1770
     24  OG1       13.0380   57.2590   67.0610 O.3    53  THR53      -0.2211
     25  CG2       11.9770   55.1910   67.6720 C.3    53  THR53       0.0375
     26  N         16.0330   58.8740   66.9250 N.3    55  GLU55      -0.1245
     27  CA        15.8280   59.8880   65.8890 C.3    55  GLU55       0.1567
     28  C         14.8280   60.9120   66.3860 C.2    55  GLU55       0.2260
     29  O         14.9420   62.0920   66.0870 O.2    55  GLU55      -0.2867
     30  CB        15.2770   59.2640   64.5990 C.3    55  GLU55       0.0388
     31  CG        16.2150   58.3100   63.8610 C.3    55  GLU55       0.1160
     32  CD        16.4850   57.0300   64.6300 C.2    55  GLU55       0.3649
     33  OE1       15.5250   56.4920   65.2340 O.co2  55  GLU55      -0.2457
     34  OE2       17.6490   56.5560   64.6170 O.co2  55  GLU55      -0.2457
     35  N          3.5650   57.0060   70.0370 N.3    75  CYS75      -0.1235
     36  CA         2.3000   56.7290   69.3720 C.3    75  CYS75       0.1677
     37  C          2.1110   55.2330   69.1740 C.2    75  CYS75       0.2270
     38  O          1.2090   54.7920   68.4680 O.2    75  CYS75      -0.2867
     39  CB         2.2290   57.4480   68.0240 C.3    75  CYS75       0.0956
     40  SG         3.5300   56.9920   66.8720 S.3    75  CYS75      -0.0801
     41  N          1.5960   61.3980   64.7380 N.3   131  ASP131     -0.1239
     42  CA         2.0660   60.3350   63.8650 C.3   131  ASP131      0.1674
     43  C          1.0200   59.2360   63.9670 C.2   131  ASP131      0.2266
     44  O          1.1610   58.3110   64.7650 O.2   131  ASP131     -0.2867
     45  CB         3.4220   59.8380   64.3580 C.3   131  ASP131      0.1410
     46  CG         4.0470   58.8290   63.4280 C.2   131  ASP131      0.3668
     47  OD1        3.3480   57.8610   63.0580 O.co2 131  ASP131     -0.2456
     48  OD2        5.2390   58.9940   63.0740 O.co2 131  ASP131     -0.2456
     49  N          2.4130   63.1320   60.2860 N.3   197  GLU197     -0.1231
     50  CA         3.5740   62.4320   59.7540 C.3   197  GLU197      0.1699
     51  C          3.3010   61.2470   58.8190 C.2   197  GLU197      0.2592
     52  O          4.0270   61.0410   57.8510 O.2   197  GLU197     -0.2718
     53  CB         4.4140   61.9550   60.9510 C.3   197  GLU197      0.0402
     54  CG         5.5800   61.0310   60.6350 C.3   197  GLU197      0.1161
     55  CD         6.8660   61.7850   60.3810 C.2   197  GLU197      0.3649
     56  OE1        7.8790   61.1280   60.0370 O.co2 197  GLU197     -0.2457
     57  OE2        6.8620   63.0320   60.5300 O.co2 197  GLU197     -0.2457
     58  N          2.2580   60.4730   59.1010 N.am  198  THR198     -0.1953
     59  CA         1.9870   59.2840   58.3010 C.3   198  THR198      0.1897
     60  C          0.7090   59.2500   57.4630 C.2   198  THR198      0.2313
     61  O         -0.2470   59.9800   57.7200 O.2   198  THR198     -0.2863
     62  CB         2.0500   58.0230   59.2010 C.3   198  THR198      0.1794
     63  OG1        2.4220   56.8880   58.4080 O.3   198  THR198     -0.2208
     64  CG2        0.7020   57.7690   59.8790 C.3   198  THR198      0.0378
     65  N          9.4670   63.2810   51.8110 N.3   227  LYS227     -0.1245
     66  CA         9.0450   62.4500   52.9160 C.3   227  LYS227      0.1561
     67  C          8.4570   61.1460   52.3720 C.2   227  LYS227      0.2260
     68  O          8.9990   60.0790   52.6240 O.2   227  LYS227     -0.2867
     69  CB         8.0280   63.1980   53.7740 C.3   227  LYS227      0.0271
     70  CG         7.8090   62.5950   55.1480 C.3   227  LYS227      0.0035
     71  CD         6.9820   61.3210   55.1070 C.3   227  LYS227      0.0206
     72  CE         6.9410   60.6610   56.4860 C.3   227  LYS227      0.1093
     73  NZ         6.1380   59.3840   56.5570 N.3   227  LYS227     -0.1314
     74  N         11.3280   58.6010   53.0530 N.3   231  ASP231     -0.1225
     75  CA        10.9420   57.9130   54.2860 C.3   231  ASP231      0.1805
     76  C         10.2010   56.6170   53.9870 C.2   231  ASP231      0.2597
     77  O         10.6940   55.5310   54.2800 O.2   231  ASP231     -0.2718
     78  CB        10.0380   58.8340   55.1220 C.3   231  ASP231      0.1424
     79  CG         9.5490   58.1870   56.4060 C.2   231  ASP231      0.3668
     80  OD1        8.9040   57.1030   56.3420 O.co2 231  ASP231     -0.2456
     81  OD2        9.7960   58.7760   57.4890 O.co2 231  ASP231     -0.2456
     82  N          9.0200   56.7420   53.3890 N.am  232  ASN232     -0.1974
     83  CA         8.1980   55.5820   53.0890 C.3   232  ASN232      0.1688
     84  C          8.8490   54.5420   52.1900 C.2   232  ASN232      0.2292
     85  O          8.4980   53.3770   52.2750 O.2   232  ASN232     -0.2864
     86  CB         6.8580   56.0040   52.4780 C.3   232  ASN232      0.1181
     87  CG         6.0440   56.9050   53.3990 C.2   232  ASN232      0.2629
     88  OD1        4.8180   56.9310   53.3280 O.2   232  ASN232     -0.2716
     89  ND2        6.7240   57.6600   54.2490 N.am  232  ASN232     -0.0877
     90  N          2.0530   48.4300   58.3170 N.3   341  GLY341     -0.1225
     91  CA         1.1620   49.5110   57.9400 C.3   341  GLY341      0.1811
     92  C          0.6580   50.3060   59.1320 C.2   341  GLY341      0.2280
     93  O          1.4280   51.0180   59.7780 O.2   341  GLY341     -0.2866
     94  N          3.3510   47.7200   64.1730 N.3   386  LEU386     -0.1245
     95  CA         4.5700   48.0080   63.4030 C.3   386  LEU386      0.1561
     96  C          5.7520   47.1230   63.7960 C.2   386  LEU386      0.2260
     97  O          6.3260   47.2680   64.8740 O.2   386  LEU386     -0.2867
     98  CB         4.9550   49.4830   63.5450 C.3   386  LEU386      0.0270
     99  CG         3.8940   50.5150   63.1210 C.3   386  LEU386      0.0019
    100  CD1        4.5210   51.9230   63.0980 C.3   386  LEU386      0.0001
    101  CD2        3.3540   50.1670   61.7490 C.3   386  LEU386      0.0001
    102  N          8.7560   46.9070   62.2230 N.3   388  ASN388     -0.1225
    103  CA        10.0590   47.5580   62.1310 C.3   388  ASN388      0.1785
    104  C         10.3850   48.3840   63.3710 C.2   388  ASN388      0.2597
    105  O         11.5450   48.4810   63.7630 O.2   388  ASN388     -0.2718
    106  CB        10.1750   48.4310   60.8690 C.3   388  ASN388      0.1169
    107  CG         9.1510   49.5590   60.8120 C.2   388  ASN388      0.2627
    108  OD1        9.4420   50.6310   60.2680 O.2   388  ASN388     -0.2716
    109  ND2        7.9570   49.3260   61.3440 N.am  388  ASN388     -0.0877
    110  N          9.3670   48.9660   63.9970 N.am  389  LEU389     -0.1980
    111  CA         9.5750   49.7680   65.2010 C.3   389  LEU389      0.1596
    112  C          9.4300   48.9460   66.4730 C.2   389  LEU389      0.2287
    113  O          9.9160   49.3370   67.5310 O.2   389  LEU389     -0.2864
    114  CB         8.5900   50.9310   65.2210 C.3   389  LEU389      0.0297
    115  CG         9.0460   52.0840   64.3190 C.3   389  LEU389      0.0022
    116  CD1        7.8600   52.8560   63.7850 C.3   389  LEU389      0.0001
    117  CD2        9.9790   52.9810   65.1220 C.3   389  LEU389      0.0001
    118  N         14.5810   49.1070   65.3790 N.3   393  THR393     -0.1203
    119  CA        14.6730   50.5170   65.7560 C.3   393  THR393      0.1994
    120  C         14.1040   51.4790   64.7180 C.2   393  THR393      0.2618
    121  O         14.4980   52.6480   64.6620 O.2   393  THR393     -0.2717
    122  CB        16.1340   50.9050   65.9800 C.3   393  THR393      0.1784
    123  OG1       16.8420   50.7940   64.7370 O.3   393  THR393     -0.2211
    124  CG2       16.7720   49.9830   66.9880 C.3   393  THR393      0.0376
    125  N         13.1910   50.9870   63.8890 N.am  394  GLY394     -0.1942
    126  CA        12.6060   51.8280   62.8600 C.3   394  GLY394      0.2014
    127  C         13.6310   52.3050   61.8490 C.2   394  GLY394      0.2638
    128  O         14.7450   51.7750   61.7590 O.2   394  GLY394     -0.2714
    129  N         13.2450   53.3180   61.0870 N.am  395  HIS395     -0.1973
    130  CA        14.1100   53.8830   60.0690 C.3   395  HIS395      0.1656
    131  C         15.4220   54.4140   60.6140 C.2   395  HIS395      0.2291
    132  O         15.5130   54.8100   61.7710 O.2   395  HIS395     -0.2864
    133  CB        13.3900   55.0360   59.3520 C.3   395  HIS395      0.0771
    134  CG        12.1550   54.6110   58.6330 C.ar  395  HIS395      0.0820
    135  ND1       11.8220   53.2860   58.4530 N.ar  395  HIS395     -0.2267
    136  CD2       11.1860   55.3320   58.0280 C.ar  395  HIS395      0.1154
    137  CE1       10.6980   53.2100   57.7660 C.ar  395  HIS395      0.1986
    138  NE2       10.2920   54.4380   57.4950 N.ar  395  HIS395     -0.2212
    139  N         15.0890   59.5400   58.6220 N.3   400  MET400     -0.1245
    140  CA        14.2510   60.3380   59.5070 C.3   400  MET400      0.1570
    141  C         14.6280   61.8110   59.4870 C.2   400  MET400      0.2261
    142  O         13.8450   62.6650   59.8970 O.2   400  MET400     -0.2867
    143  CB        14.3270   59.8200   60.9470 C.3   400  MET400      0.0387
    144  CG        13.7480   58.4300   61.1360 C.3   400  MET400      0.0595
    145  SD        12.2190   58.1940   60.1970 S.3   400  MET400     -0.1393
    146  CE        11.1640   59.5200   60.9020 C.3   400  MET400      0.0692
    147  N         11.8520   64.6420   59.6690 N.3   404  PHE404     -0.1241
    148  CA        11.8740   65.5990   60.7600 C.3   404  PHE404      0.1605
    149  C         12.2180   67.0240   60.3250 C.2   404  PHE404      0.2264
    150  O         11.9480   67.9760   61.0430 O.2   404  PHE404     -0.2867
    151  CB        12.8040   65.1010   61.8590 C.3   404  PHE404      0.0534
    152  CG        12.3300   63.8350   62.5180 C.ar  404  PHE404     -0.0203
    153  CD1       10.9900   63.4380   62.4360 C.ar  404  PHE404     -0.0042
    154  CD2       13.2130   63.0610   63.2640 C.ar  404  PHE404     -0.0042
    155  CE1       10.5410   62.2920   63.0920 C.ar  404  PHE404     -0.0003
    156  CE2       12.7750   61.9200   63.9210 C.ar  404  PHE404     -0.0003
    157  CZ        11.4360   61.5310   63.8380 C.ar  404  PHE404     -0.0000
@<TRIPOS>BOND
     1    65    66    1
     2    84    85    2
     3    84    83    1
     4    67    68    2
     5    67    66    1
     6    86    83    1
     7    86    87    1
     8    66    69    1
     9    74    75    1
    10    83    82    1
    11    88    87    2
    12    82    76   am
    13    87    89   am
    14    69    70    1
    15    76    77    2
    16    76    75    1
    17    75    78    1
    18    71    70    1
    19    71    72    1
    20    78    79    1
    21    80    79   ar
    22    79    81   ar
    23    72    73    1
    24    60    61    2
    25    60    59    1
    26   138   137   ar
    27   138   136   ar
    28   137   135   ar
    29    52    51    2
    30    91    90    1
    31    91    92    1
    32   136   134   ar
    33    59    58    1
    34    59    62    1
    35    63    62    1
    36   135   134   ar
    37   139   140    1
    38   134   133    1
    39    51    58   am
    40    51    50    1
    41    92    93    2
    42    62    64    1
    43   133   130    1
    44   141   140    1
    45   141   142    2
    46   140   143    1
    47   147   148    1
    48    50    49    1
    49    50    53    1
    50    56    55   ar
    51   130   131    1
    52   130   129    1
    53   145   146    1
    54   145   144    1
    55   108   107    2
    56   149   148    1
    57   149   150    2
    58    55    57   ar
    59    55    54    1
    60   131   132    2
    61    54    53    1
    62   148   151    1
    63   107   106    1
    64   107   109   am
    65   106   103    1
    66   143   144    1
    67   129   127   am
    68   101    99    1
    69   128   127    2
    70   127   126    1
    71   151   152    1
    72   103   102    1
    73   103   104    1
    74   153   152   ar
    75   153   155   ar
    76   152   154   ar
    77   126   125    1
    78    47    46   ar
    79    48    46   ar
    80   155   157   ar
    81   100    99    1
    82    99    98    1
    83   154   156   ar
    84   104   105    2
    85   104   110   am
    86    95    98    1
    87    95    96    1
    88    95    94    1
    89    46    45    1
    90   116   115    1
    91    96    97    2
    92   157   156   ar
    93    31    30    1
    94    31    32    1
    95    42    43    1
    96    42    45    1
    97    42    41    1
    98   125   120   am
    99    43    44    2
   100   110   111    1
   101   115   117    1
   102   115   114    1
   103    30    27    1
   104    34    32   ar
   105    32    33   ar
   106   121   120    2
   107   120   119    1
   108     7     6    1
   109   123   122    1
   110    18    16   ar
   111    18    17   ar
   112    16    14   ar
   113   111   114    1
   114   111   112    1
   115   118   119    1
   116   119   122    1
   117     6     8    1
   118     6     5    1
   119    17    15   ar
   120    27    28    1
   121    27    26    1
   122   122   124    1
   123    29    28    2
   124    14    15   ar
   125    14    13    1
   126   112   113    2
   127    40    39    1
   128     5     2    1
   129    13    10    1
   130    24    23    1
   131    25    23    1
   132     9    10    1
   133     9     3   am
   134     2     3    1
   135     2     1    1
   136    23    20    1
   137    39    36    1
   138    10    11    1
   139    12    11    2
   140    38    37    2
   141     3     4    2
   142    37    36    1
   143    36    35    1
   144    20    21    1
   145    20    19    1
   146    21    22    2
