@<TRIPOS>MOLECULE
tmp/1v8fA01.pdb
 80 77 0 0 0
SMALL
GASTEIGER

@<TRIPOS>ATOM
      1  N         77.0850   19.3510 -209.9280 N.3     2  ARG2       -0.1231
      2  CA        78.2370   20.0630 -209.4310 C.3     2  ARG2        0.1694
      3  C         78.1220   20.4230 -207.9540 C.2     2  ARG2        0.2593
      4  O         77.0670   20.8530 -207.4880 O.2     2  ARG2       -0.2718
      5  CB        78.4550   21.3300 -210.2320 C.3     2  ARG2        0.0321
      6  CG        79.5540   22.1520 -209.6550 C.3     2  ARG2        0.0489
      7  CD        80.7900   21.3000 -209.4180 C.3     2  ARG2        0.2205
      8  NE        81.1660   20.5340 -210.6010 N.pl3   2  ARG2       -0.0865
      9  CZ        82.4160   20.4160 -211.0400 C.cat   2  ARG2        0.5346
     10  NH1       83.4050   21.0190 -210.3930 N.pl3   2  ARG2        0.1354
     11  NH2       82.6780   19.6920 -212.1200 N.pl3   2  ARG2        0.1354
     12  N         79.2250   20.2550 -207.2300 N.am    3  THR3       -0.1939
     13  CA        79.2730   20.5590 -205.8060 C.3     3  THR3        0.2028
     14  C         80.1720   21.7590 -205.5320 C.2     3  THR3        0.2642
     15  O         81.3260   21.7950 -205.9600 O.2     3  THR3       -0.2714
     16  CB        79.8070   19.3590 -205.0020 C.3     3  THR3        0.1808
     17  OG1       78.9930   18.2100 -205.2630 O.3     3  THR3       -0.2208
     18  CG2       79.7880   19.6630 -203.5120 C.3     3  THR3        0.0379
     19  N         79.6350   22.7460 -204.8240 N.am    4  VAL4       -0.1977
     20  CA        80.3970   23.9380 -204.4800 C.3     4  VAL4        0.1596
     21  C         80.3260   24.1660 -202.9770 C.2     4  VAL4        0.2287
     22  O         79.3340   23.8230 -202.3310 O.2     4  VAL4       -0.2864
     23  CB        79.8630   25.1860 -205.2190 C.3     4  VAL4        0.0276
     24  CG1       80.0760   25.0220 -206.7210 C.3     4  VAL4        0.0022
     25  CG2       78.3830   25.3930 -204.9070 C.3     4  VAL4        0.0022
     26  N         81.5840   30.4980 -205.7790 N.3     9  GLU9       -0.1245
     27  CA        81.3280   29.4680 -206.7810 C.3     9  GLU9        0.1567
     28  C         79.8180   29.3190 -206.9800 C.2     9  GLU9        0.2260
     29  O         79.3450   29.1080 -208.0990 O.2     9  GLU9       -0.2867
     30  CB        81.9240   28.1290 -206.3320 C.3     9  GLU9        0.0388
     31  CG        83.4070   28.1920 -205.9940 C.3     9  GLU9        0.1160
     32  CD        83.9510   26.8810 -205.4380 C.2     9  GLU9        0.3649
     33  OE1       83.3570   26.3230 -204.4860 O.co2   9  GLU9       -0.2457
     34  OE2       84.9880   26.4140 -205.9510 O.co2   9  GLU9       -0.2457
     35  N         77.5830   29.9800 -210.5190 N.3    13  ALA13      -0.1245
     36  CA        76.9360   28.8480 -211.1830 C.3    13  ALA13       0.1562
     37  C         75.4120   28.9400 -211.2770 C.2    13  ALA13       0.2260
     38  O         74.7790   28.1350 -211.9620 O.2    13  ALA13      -0.2867
     39  CB        77.3270   27.5490 -210.4790 C.3    13  ALA13       0.0290
     40  N         71.6890   30.3110 -212.3600 N.3    15  PRO15      -0.2116
     41  CA        71.0270   31.0000 -213.4660 C.3    15  PRO15       0.1372
     42  C         70.1670   32.0780 -212.8170 C.2    15  PRO15       0.2244
     43  O         69.9440   32.0450 -211.6040 O.2    15  PRO15      -0.2868
     44  CB        70.1940   29.8980 -214.1100 C.3    15  PRO15       0.0268
     45  CG        69.8490   29.0280 -212.9510 C.3    15  PRO15       0.0207
     46  CD        71.1630   28.9440 -212.2090 C.3    15  PRO15       0.0892
     47  N         63.5610   24.1160 -214.0450 N.3    44  PRO44      -0.2102
     48  CA        64.6220   23.6600 -214.9500 C.3    44  PRO44       0.1504
     49  C         65.9880   23.4900 -214.2790 C.2    44  PRO44       0.2575
     50  O         66.8130   22.6990 -214.7390 O.2    44  PRO44      -0.2718
     51  CB        64.6280   24.7310 -216.0430 C.3    44  PRO44       0.0282
     52  CG        64.1930   25.9670 -215.3110 C.3    44  PRO44       0.0208
     53  CD        63.0730   25.4530 -214.4290 C.3    44  PRO44       0.0893
     54  N         66.2190   24.2140 -213.1850 N.am   45  PHE45      -0.1977
     55  CA        67.4960   24.1390 -212.4710 C.3    45  PHE45       0.1639
     56  C         67.2430   23.8480 -210.9950 C.2    45  PHE45       0.2290
     57  O         66.5020   24.5680 -210.3360 O.2    45  PHE45      -0.2864
     58  CB        68.2520   25.4660 -212.6330 C.3    45  PHE45       0.0560
     59  CG        69.7010   25.4070 -212.2240 C.ar   45  PHE45      -0.0200
     60  CD1       70.0750   25.5250 -210.8870 C.ar   45  PHE45      -0.0042
     61  CD2       70.6960   25.2560 -213.1830 C.ar   45  PHE45      -0.0042
     62  CE1       71.4240   25.4960 -210.5160 C.ar   45  PHE45      -0.0003
     63  CE2       72.0470   25.2270 -212.8180 C.ar   45  PHE45      -0.0003
     64  CZ        72.4120   25.3480 -211.4890 C.ar   45  PHE45      -0.0000
     65  N         71.2210   19.7270 -210.1440 N.3    83  ASP83      -0.1225
     66  CA        72.1990   20.5000 -210.9030 C.3    83  ASP83       0.1805
     67  C         73.3540   21.0150 -210.0670 C.2    83  ASP83       0.2597
     68  O         74.5170   20.9280 -210.4710 O.2    83  ASP83      -0.2718
     69  CB        71.5380   21.7100 -211.5670 C.3    83  ASP83       0.1424
     70  CG        70.5360   21.3200 -212.6190 C.2    83  ASP83       0.3668
     71  OD1       69.3230   21.3780 -212.3330 O.co2  83  ASP83      -0.2456
     72  OD2       70.9700   20.9500 -213.7310 O.co2  83  ASP83      -0.2456
     73  N         73.0260   21.5550 -208.8980 N.am   84  LEU84      -0.1979
     74  CA        74.0290   22.1500 -208.0290 C.3    84  LEU84       0.1596
     75  C         73.8150   21.8150 -206.5550 C.2    84  LEU84       0.2287
     76  O         72.7100   21.9570 -206.0270 O.2    84  LEU84      -0.2864
     77  CB        73.9950   23.6710 -208.2320 C.3    84  LEU84       0.0297
     78  CG        75.0420   24.5990 -207.6140 C.3    84  LEU84       0.0022
     79  CD1       74.8340   26.0090 -208.1620 C.3    84  LEU84       0.0001
     80  CD2       74.9290   24.5910 -206.0880 C.3    84  LEU84       0.0001
@<TRIPOS>BOND
     1    51    52    1
     2    51    48    1
     3    52    53    1
     4    48    49    1
     5    48    47    1
     6    50    49    2
     7    53    47    1
     8    49    54   am
     9    44    41    1
    10    44    45    1
    11    72    70   ar
    12    41    42    1
    13    41    40    1
    14    54    55    1
    15    61    63   ar
    16    61    59   ar
    17    45    46    1
    18    63    64   ar
    19    42    43    2
    20    58    55    1
    21    58    59    1
    22    70    71   ar
    23    70    69    1
    24    55    56    1
    25    40    46    1
    26    59    60   ar
    27    11     9    1
    28    38    37    2
    29    69    66    1
    30    64    62   ar
    31    37    36    1
    32    36    35    1
    33    36    39    1
    34     9     8    2
    35     9    10    1
    36    56    57    2
    37    66    65    1
    38    66    67    1
    39    60    62   ar
    40     8     7    1
    41    68    67    2
    42     5     6    1
    43     5     2    1
    44    67    73   am
    45     1     2    1
    46     6     7    1
    47     2     3    1
    48    73    74    1
    49    77    74    1
    50    77    78    1
    51    79    78    1
    52    29    28    2
    53    74    75    1
    54     3     4    2
    55     3    12   am
    56    78    80    1
    57    12    13    1
    58    28    27    1
    59    27    30    1
    60    27    26    1
    61    24    23    1
    62    75    76    2
    63    30    31    1
    64    31    32    1
    65    15    14    2
    66    34    32   ar
    67    13    14    1
    68    13    16    1
    69    14    19   am
    70    32    33   ar
    71    17    16    1
    72    23    25    1
    73    23    20    1
    74    16    18    1
    75    19    20    1
    76    20    21    1
    77    21    22    2
