@<TRIPOS>MOLECULE
tmp/1v8fA00.pdb
 117 110 0 0 0
SMALL
GASTEIGER

@<TRIPOS>ATOM
      1  N         66.5690   23.2870 -199.1820 N.3    23  PRO23      -0.2102
      2  CA        67.5640   23.3910 -198.1020 C.3    23  PRO23       0.1504
      3  C         67.4920   22.1850 -197.1550 C.2    23  PRO23       0.2576
      4  O         66.4020   21.7650 -196.7620 O.2    23  PRO23      -0.2718
      5  CB        67.1870   24.7010 -197.4130 C.3    23  PRO23       0.0282
      6  CG        65.6870   24.7300 -197.5650 C.3    23  PRO23       0.0208
      7  CD        65.4810   24.2650 -199.0050 C.3    23  PRO23       0.0893
      8  N         68.6440   21.6190 -196.7980 N.am   24  THR24      -0.1939
      9  CA        68.6770   20.4570 -195.9040 C.3    24  THR24       0.2028
     10  C         69.8950   20.4940 -194.9780 C.2    24  THR24       0.2642
     11  O         70.8070   21.3010 -195.1710 O.2    24  THR24      -0.2714
     12  CB        68.7740   19.1340 -196.6990 C.3    24  THR24       0.1808
     13  OG1       70.1280   18.9440 -197.1360 O.3    24  THR24      -0.2208
     14  CG2       67.8720   19.1650 -197.9250 C.3    24  THR24       0.0379
     15  N         69.9060   19.6200 -193.9750 N.am   25  MET25      -0.1976
     16  CA        71.0460   19.5300 -193.0680 C.3    25  MET25       0.1605
     17  C         71.8260   18.2410 -193.3340 C.2    25  MET25       0.2287
     18  O         72.5560   17.7500 -192.4760 O.2    25  MET25      -0.2864
     19  CB        70.5990   19.5890 -191.6040 C.3    25  MET25       0.0413
     20  CG        69.8930   20.8930 -191.2630 C.3    25  MET25       0.0598
     21  SD        70.2410   21.5120 -189.6030 S.3    25  MET25      -0.1393
     22  CE        69.4510   20.2820 -188.6020 C.3    25  MET25       0.0692
     23  N         73.8140   21.6740 -195.0330 N.3    51  PHE51      -0.1241
     24  CA        74.5090   22.4610 -194.0240 C.3    51  PHE51       0.1605
     25  C         73.8600   22.3030 -192.6590 C.2    51  PHE51       0.2264
     26  O         72.7070   22.7080 -192.4560 O.2    51  PHE51      -0.2867
     27  CB        74.5010   23.9470 -194.4240 C.3    51  PHE51       0.0534
     28  CG        75.1130   24.8650 -193.3940 C.ar   51  PHE51      -0.0203
     29  CD1       74.3220   25.7780 -192.6950 C.ar   51  PHE51      -0.0042
     30  CD2       76.4770   24.8090 -193.1140 C.ar   51  PHE51      -0.0042
     31  CE1       74.8800   26.6220 -191.7320 C.ar   51  PHE51      -0.0003
     32  CE2       77.0460   25.6500 -192.1500 C.ar   51  PHE51      -0.0003
     33  CZ        76.2490   26.5540 -191.4590 C.ar   51  PHE51      -0.0000
     34  N         73.1530   23.6050 -189.5830 N.3    53  ASN53      -0.1240
     35  CA        73.1370   24.9720 -189.0700 C.3    53  ASN53       0.1653
     36  C         73.2170   25.0820 -187.5400 C.2    53  ASN53       0.2266
     37  O         72.2420   24.8320 -186.8390 O.2    53  ASN53      -0.2867
     38  CB        71.8670   25.6480 -189.6000 C.3    53  ASN53       0.1155
     39  CG        71.6180   26.9930 -188.9750 C.2    53  ASN53       0.2627
     40  OD1       72.5410   27.7840 -188.7880 O.2    53  ASN53      -0.2716
     41  ND2       70.3590   27.2760 -188.6730 N.am   53  ASN53      -0.0877
     42  N         70.3810   26.8860 -185.1910 N.3    56  GLN56      -0.1245
     43  CA        69.1080   26.3070 -184.7840 C.3    56  GLN56       0.1566
     44  C         69.2110   25.1990 -183.7400 C.2    56  GLN56       0.2260
     45  O         68.2160   24.5410 -183.4430 O.2    56  GLN56      -0.2867
     46  CB        68.3050   25.8220 -186.0060 C.3    56  GLN56       0.0367
     47  CG        68.8870   24.6410 -186.7560 C.3    56  GLN56       0.0905
     48  CD        68.2280   24.4370 -188.1120 C.2    56  GLN56       0.2608
     49  OE1       68.4050   25.2440 -189.0260 O.2    56  GLN56      -0.2717
     50  NE2       67.4580   23.3600 -188.2460 N.am   56  GLN56      -0.0878
     51  N         65.2690   28.1730 -181.3940 N.3   120  HIS120     -0.1241
     52  CA        65.3670   27.3090 -182.5710 C.3   120  HIS120      0.1621
     53  C         64.9150   28.0210 -183.8450 C.2   120  HIS120      0.2264
     54  O         65.6350   28.0380 -184.8490 O.2   120  HIS120     -0.2867
     55  CB        64.5190   26.0380 -182.3980 C.3   120  HIS120      0.0745
     56  CG        64.4370   25.2000 -183.6400 C.ar  120  HIS120      0.0817
     57  ND1       65.5300   24.5490 -184.1720 N.ar  120  HIS120     -0.2268
     58  CD2       63.4000   24.9360 -184.4720 C.ar  120  HIS120      0.1154
     59  CE1       65.1710   23.9230 -185.2790 C.ar  120  HIS120      0.1986
     60  NE2       63.8830   24.1410 -185.4830 N.ar  120  HIS120     -0.2212
     61  N         66.5680   29.0370 -187.5820 N.3   124  VAL124     -0.1245
     62  CA        66.0280   28.5940 -188.8640 C.3   124  VAL124      0.1561
     63  C         65.7610   29.7840 -189.7820 C.2   124  VAL124      0.2260
     64  O         66.1370   29.7740 -190.9520 O.2   124  VAL124     -0.2867
     65  CB        64.6960   27.8370 -188.6850 C.3   124  VAL124      0.0252
     66  CG1       64.1250   27.4680 -190.0460 C.3   124  VAL124      0.0019
     67  CG2       64.9040   26.5940 -187.8290 C.3   124  VAL124      0.0019
     68  N         69.1960   31.3100 -191.1360 N.3   127  VAL127     -0.1231
     69  CA        69.8790   30.5690 -192.1930 C.3   127  VAL127      0.1692
     70  C         69.0440   30.4930 -193.4710 C.2   127  VAL127      0.2591
     71  O         69.5860   30.5370 -194.5750 O.2   127  VAL127     -0.2718
     72  CB        70.2500   29.1310 -191.7340 C.3   127  VAL127      0.0266
     73  CG1       69.0060   28.2550 -191.6770 C.3   127  VAL127      0.0020
     74  CG2       71.3130   28.5400 -192.6660 C.3   127  VAL127      0.0020
     75  N         67.7260   30.3800 -193.3340 N.am  128  VAL128     -0.1980
     76  CA        66.8740   30.3020 -194.5160 C.3   128  VAL128      0.1595
     77  C         66.8750   31.6280 -195.2690 C.2   128  VAL128      0.2287
     78  O         66.8950   31.6530 -196.4980 O.2   128  VAL128     -0.2864
     79  CB        65.4200   29.9100 -194.1470 C.3   128  VAL128      0.0276
     80  CG1       64.5160   30.0190 -195.3800 C.3   128  VAL128      0.0022
     81  CG2       65.3940   28.4730 -193.6230 C.3   128  VAL128      0.0022
     82  N         70.1930   31.7260 -197.1040 N.3   131  LEU131     -0.1245
     83  CA        70.1990   30.8060 -198.2360 C.3   131  LEU131      0.1561
     84  C         69.3360   31.3410 -199.3810 C.2   131  LEU131      0.2260
     85  O         69.7100   31.2250 -200.5490 O.2   131  LEU131     -0.2867
     86  CB        69.7200   29.4150 -197.7920 C.3   131  LEU131      0.0270
     87  CG        70.7000   28.6170 -196.9220 C.3   131  LEU131      0.0019
     88  CD1       70.0150   27.3900 -196.3420 C.3   131  LEU131      0.0001
     89  CD2       71.9060   28.1990 -197.7600 C.3   131  LEU131      0.0001
     90  N         59.9490   22.5080 -198.7250 N.3   142  PHE142     -0.1241
     91  CA        60.0630   22.0790 -197.3280 C.3   142  PHE142      0.1605
     92  C         59.1130   20.9290 -197.0140 C.2   142  PHE142      0.2264
     93  O         58.0320   20.8340 -197.5960 O.2   142  PHE142     -0.2867
     94  CB        59.7370   23.2400 -196.3820 C.3   142  PHE142      0.0534
     95  CG        60.7060   24.3820 -196.4590 C.ar  142  PHE142     -0.0203
     96  CD1       60.6450   25.2960 -197.5050 C.ar  142  PHE142     -0.0042
     97  CD2       61.6970   24.5320 -195.4900 C.ar  142  PHE142     -0.0042
     98  CE1       61.5580   26.3470 -197.5870 C.ar  142  PHE142     -0.0003
     99  CE2       62.6150   25.5790 -195.5620 C.ar  142  PHE142     -0.0003
    100  CZ        62.5430   26.4880 -196.6170 C.ar  142  PHE142     -0.0000
    101  N         57.8470   19.0530 -190.5620 N.3   146  ASP146     -0.1239
    102  CA        58.2390   20.1640 -189.6990 C.3   146  ASP146      0.1674
    103  C         57.2400   21.2500 -190.0750 C.2   146  ASP146      0.2266
    104  O         57.5890   22.2630 -190.6790 O.2   146  ASP146     -0.2867
    105  CB        59.6700   20.5960 -190.0150 C.3   146  ASP146      0.1410
    106  CG        60.6810   19.5320 -189.6490 C.2   146  ASP146      0.3668
    107  OD1       60.9190   19.3360 -188.4380 O.co2 146  ASP146     -0.2456
    108  OD2       61.2220   18.8810 -190.5700 O.co2 146  ASP146     -0.2456
    109  N         57.7600   24.8160 -188.7150 N.3   149  GLN149     -0.1245
    110  CA        58.8390   25.4450 -189.4700 C.3   149  GLN149      0.1566
    111  C         58.3350   25.9430 -190.8250 C.2   149  GLN149      0.2260
    112  O         58.7120   27.0200 -191.2710 O.2   149  GLN149     -0.2867
    113  CB        59.9950   24.4610 -189.6750 C.3   149  GLN149      0.0367
    114  CG        60.9310   24.8520 -190.8100 C.3   149  GLN149      0.0905
    115  CD        62.0990   23.9050 -190.9530 C.2   149  GLN149      0.2608
    116  OE1       63.0770   24.0110 -190.2250 O.2   149  GLN149     -0.2717
    117  NE2       61.9940   22.9610 -191.8830 N.am  149  GLN149     -0.0878
@<TRIPOS>BOND
     1    85    84    2
     2    84    83    1
     3     1     7    1
     4     1     2    1
     5     7     6    1
     6    90    91    1
     7    83    86    1
     8    83    82    1
     9     2     5    1
    10     2     3    1
    11    14    12    1
    12    86    87    1
    13    89    87    1
    14    93    92    2
    15    98    96   ar
    16    98   100   ar
    17     6     5    1
    18    96    95   ar
    19    91    92    1
    20    91    94    1
    21     3     8   am
    22     3     4    2
    23    13    12    1
    24    87    88    1
    25     8     9    1
    26    12     9    1
    27   100    99   ar
    28    78    77    2
    29    95    94    1
    30    95    97   ar
    31     9    10    1
    32    99    97   ar
    33    80    79    1
    34    77    76    1
    35    11    10    2
    36    23    24    1
    37    10    15   am
    38    71    70    2
    39    76    79    1
    40    76    75    1
    41    27    24    1
    42    27    28    1
    43    79    81    1
    44    24    25    1
    45    15    16    1
    46    70    75   am
    47    70    69    1
    48    28    30   ar
    49    28    29   ar
    50    17    16    1
    51    17    18    2
    52    30    32   ar
    53    16    19    1
    54    29    31   ar
    55    74    72    1
    56    25    26    2
    57    69    72    1
    58    69    68    1
    59    32    33   ar
    60   117   115   am
    61    72    73    1
    62    31    33   ar
    63    19    20    1
    64   112   111    2
    65    20    21    1
    66   115   114    1
    67   115   116    2
    68    64    63    2
    69   111   110    1
    70   114   113    1
    71   104   103    2
    72   108   106   ar
    73   101   102    1
    74   103   102    1
    75    66    65    1
    76   105   102    1
    77   105   106    1
    78    63    62    1
    79   113   110    1
    80   106   107   ar
    81    21    22    1
    82    38    35    1
    83    38    39    1
    84    34    35    1
    85   110   109    1
    86    35    36    1
    87    49    48    2
    88    39    40    2
    89    39    41   am
    90    62    65    1
    91    62    61    1
    92    65    67    1
    93    50    48   am
    94    48    47    1
    95    36    37    2
    96    47    46    1
    97    46    43    1
    98    60    59   ar
    99    60    58   ar
   100    59    57   ar
   101    42    43    1
   102    54    53    2
   103    43    44    1
   104    58    56   ar
   105    57    56   ar
   106    53    52    1
   107    44    45    2
   108    56    55    1
   109    52    55    1
   110    52    51    1
