@<TRIPOS>MOLECULE
tmp/1v8mA00.pdb
 170 155 0 0 0
SMALL
GASTEIGER

@<TRIPOS>ATOM
      1  N          1.1370    4.6600   30.1340 N.3     8  ARG8       -0.1231
      2  CA         0.9700    5.6500   29.0790 C.3     8  ARG8        0.1694
      3  C          0.7240    7.0660   29.5890 C.2     8  ARG8        0.2592
      4  O          1.4750    7.9890   29.2670 O.2     8  ARG8       -0.2718
      5  CB        -0.1910    5.2550   28.1640 C.3     8  ARG8        0.0321
      6  CG         0.2300    4.7240   26.8130 C.3     8  ARG8        0.0489
      7  CD        -0.8880    4.9170   25.8050 C.3     8  ARG8        0.2205
      8  NE        -1.2530    6.3270   25.6920 N.pl3   8  ARG8       -0.0865
      9  CZ        -2.2240    6.7930   24.9130 C.cat   8  ARG8        0.5346
     10  NH1       -2.9410    5.9620   24.1660 N.pl3   8  ARG8        0.1354
     11  NH2       -2.4820    8.0940   24.8850 N.pl3   8  ARG8        0.1354
     12  N         -0.3370    7.2360   30.3740 N.am    9  ILE9       -0.1966
     13  CA        -0.6740    8.5530   30.8970 C.3     9  ILE9        0.1727
     14  C         -0.4640    8.6750   32.4000 C.2     9  ILE9        0.2616
     15  O         -0.8960    9.6540   33.0030 O.2     9  ILE9       -0.2715
     16  CB        -2.1430    8.9150   30.6080 C.3     9  ILE9        0.0290
     17  CG1       -3.0710    8.0340   31.4530 C.3     9  ILE9        0.0022
     18  CG2       -2.4410    8.7440   29.1280 C.3     9  ILE9        0.0023
     19  CD1       -4.5030    8.5270   31.4930 C.3     9  ILE9        0.0001
     20  N          0.1860    7.6880   33.0050 N.am   10  LEU10      -0.1977
     21  CA         0.4230    7.7300   34.4420 C.3    10  LEU10       0.1596
     22  C          1.3940    6.6720   34.9400 C.2    10  LEU10       0.2287
     23  O          1.6390    5.6690   34.2720 O.2    10  LEU10      -0.2864
     24  CB        -0.9070    7.5750   35.1960 C.3    10  LEU10       0.0297
     25  CG        -1.7090    6.2780   35.0170 C.3    10  LEU10       0.0022
     26  CD1       -1.0370    5.1280   35.7460 C.3    10  LEU10       0.0001
     27  CD2       -3.1090    6.4700   35.5580 C.3    10  LEU10       0.0001
     28  N          0.8230   11.9090   36.7650 N.3    23  HIS23      -0.1241
     29  CA        -0.0310   12.0540   35.5970 C.3    23  HIS23       0.1621
     30  C          0.3800   13.3160   34.8290 C.2    23  HIS23       0.2264
     31  O          0.7210   14.3300   35.4350 O.2    23  HIS23      -0.2867
     32  CB        -1.4750   12.1570   36.1000 C.3    23  HIS23       0.0745
     33  CG        -2.5140   12.1700   35.0260 C.ar   23  HIS23       0.0817
     34  ND1       -2.6480   13.2050   34.1270 N.ar   23  HIS23      -0.2268
     35  CD2       -3.5110   11.2970   34.7470 C.ar   23  HIS23       0.1154
     36  CE1       -3.6860   12.9730   33.3430 C.ar   23  HIS23       0.1986
     37  NE2       -4.2270   11.8220   33.6990 N.ar   23  HIS23      -0.2212
     38  N         -2.6310   18.9020   32.2490 N.3    26  ALA26      -0.1245
     39  CA        -3.7060   19.0450   31.2770 C.3    26  ALA26       0.1562
     40  C         -4.1530   20.4850   31.0720 C.2    26  ALA26       0.2260
     41  O         -3.7080   21.3920   31.7690 O.2    26  ALA26      -0.2867
     42  CB        -4.8980   18.2020   31.7040 C.3    26  ALA26       0.0290
     43  N        -17.9710   12.5030   26.3870 N.3    42  GLN42      -0.1245
     44  CA       -17.3560   11.3530   25.7440 C.3    42  GLN42       0.1566
     45  C        -17.4100   10.1590   26.6860 C.2    42  GLN42       0.2260
     46  O        -17.6120   10.3140   27.8910 O.2    42  GLN42      -0.2867
     47  CB       -15.9050   11.6540   25.3690 C.3    42  GLN42       0.0367
     48  CG       -14.9870   11.8930   26.5480 C.3    42  GLN42       0.0905
     49  CD       -13.5900   12.2840   26.1170 C.2    42  GLN42       0.2608
     50  OE1      -12.8400   11.4720   25.5700 O.2    42  GLN42      -0.2717
     51  NE2      -13.2350   13.5380   26.3510 N.am   42  GLN42      -0.0878
     52  N        -16.3550    7.7030   29.1760 N.3    44  ARG44      -0.1245
     53  CA       -15.3130    7.7270   30.1930 C.3    44  ARG44       0.1563
     54  C        -15.3420    6.4030   30.9500 C.2    44  ARG44       0.2260
     55  O        -16.0500    6.2680   31.9440 O.2    44  ARG44      -0.2867
     56  CB       -15.5410    8.8840   31.1720 C.3    44  ARG44       0.0307
     57  CG       -15.3420   10.2710   30.5800 C.3    44  ARG44       0.0489
     58  CD       -13.9410   10.4370   29.9980 C.3    44  ARG44       0.2205
     59  NE       -13.5810   11.8420   29.8330 N.pl3  44  ARG44      -0.0865
     60  CZ       -12.4060   12.2640   29.3780 C.cat  44  ARG44       0.5346
     61  NH1      -11.4710   11.3860   29.0320 N.pl3  44  ARG44       0.1354
     62  NH2      -12.1590   13.5650   29.2860 N.pl3  44  ARG44       0.1354
     63  N        -18.3460   17.9990   30.3470 N.3    53  GLU53      -0.1245
     64  CA       -17.0260   18.6170   30.4670 C.3    53  GLU53       0.1567
     65  C        -16.9180   19.7670   29.4640 C.2    53  GLU53       0.2260
     66  O        -17.8950   20.1170   28.8010 O.2    53  GLU53      -0.2867
     67  CB       -15.9400   17.5780   30.1390 C.3    53  GLU53       0.0388
     68  CG       -16.1250   16.2240   30.8240 C.3    53  GLU53       0.1160
     69  CD       -15.0340   15.2130   30.4530 C.2    53  GLU53       0.3649
     70  OE1      -13.8710   15.6330   30.2470 O.co2  53  GLU53      -0.2457
     71  OE2      -15.3350   13.9980   30.3850 O.co2  53  GLU53      -0.2457
     72  N        -10.9240   19.7340   26.6040 N.3    56  ALA56      -0.1231
     73  CA        -9.7700   19.5420   27.4770 C.3    56  ALA56       0.1694
     74  C         -8.9070   18.3760   27.0170 C.2    56  ALA56       0.2593
     75  O         -9.3510   17.5190   26.2490 O.2    56  ALA56      -0.2718
     76  CB       -10.2450   19.2990   28.9090 C.3    56  ALA56       0.0304
     77  N         -7.6700   18.3420   27.4890 N.am   57  GLY57      -0.1942
     78  CA        -6.7960   17.2540   27.1060 C.3    57  GLY57       0.2014
     79  C         -5.4720   17.3050   27.8280 C.2    57  GLY57       0.2638
     80  O         -5.1930   18.2410   28.5770 O.2    57  GLY57      -0.2714
     81  N         -4.6500   16.2860   27.6050 N.am   58  LEU58      -0.1977
     82  CA        -3.3410   16.2440   28.2290 C.3    58  LEU58       0.1596
     83  C         -2.3680   17.0470   27.3860 C.2    58  LEU58       0.2287
     84  O         -2.4950   17.1140   26.1620 O.2    58  LEU58      -0.2864
     85  CB        -2.8360   14.8040   28.3400 C.3    58  LEU58       0.0297
     86  CG        -3.7110   13.8230   29.1200 C.3    58  LEU58       0.0022
     87  CD1       -2.9330   12.5430   29.3580 C.3    58  LEU58       0.0001
     88  CD2       -4.1450   14.4450   30.4340 C.3    58  LEU58       0.0001
     89  N          0.7850   17.4680   25.4390 N.3    60  GLU60      -0.1245
     90  CA         1.6540   16.4950   24.7850 C.3    60  GLU60       0.1567
     91  C          3.1180   16.8920   24.8650 C.2    60  GLU60       0.2260
     92  O          3.4430   18.0560   25.0800 O.2    60  GLU60      -0.2867
     93  CB         1.2430   16.3180   23.3180 C.3    60  GLU60       0.0388
     94  CG        -0.1480   15.7260   23.1550 C.3    60  GLU60       0.1160
     95  CD        -0.2730   14.3510   23.7870 C.2    60  GLU60       0.3649
     96  OE1       -1.4080   13.8460   23.9110 O.co2  60  GLU60      -0.2457
     97  OE2        0.7660   13.7670   24.1570 O.co2  60  GLU60      -0.2457
     98  N         -4.5820   23.1770   20.5220 N.3    71  ARG71      -0.1231
     99  CA        -4.7400   21.8910   19.8560 C.3    71  ARG71       0.1694
    100  C         -6.0090   21.1670   20.2770 C.2    71  ARG71       0.2591
    101  O         -6.7390   20.6480   19.4410 O.2    71  ARG71      -0.2718
    102  CB        -3.5420   20.9890   20.1270 C.3    71  ARG71       0.0321
    103  CG        -3.6720   19.5980   19.5070 C.3    71  ARG71       0.0489
    104  CD        -2.4350   18.7690   19.7870 C.3    71  ARG71       0.2205
    105  NE        -2.1790   18.6630   21.2200 N.pl3  71  ARG71      -0.0865
    106  CZ        -2.9770   18.0280   22.0750 C.cat  71  ARG71       0.5346
    107  NH1       -4.0830   17.4360   21.6380 N.pl3  71  ARG71       0.1354
    108  NH2       -2.6780   17.9930   23.3690 N.pl3  71  ARG71       0.1354
    109  N         -6.2710   21.1130   21.5750 N.am   72  GLU72      -0.1979
    110  CA        -7.4670   20.4240   22.0370 C.3    72  GLU72       0.1602
    111  C         -8.7430   21.0670   21.5070 C.2    72  GLU72       0.2287
    112  O         -9.6650   20.3640   21.0840 O.2    72  GLU72      -0.2864
    113  CB        -7.4950   20.3680   23.5640 C.3    72  GLU72       0.0415
    114  CG        -6.4580   19.4230   24.1510 C.3    72  GLU72       0.1163
    115  CD        -6.6900   17.9700   23.7510 C.2    72  GLU72       0.3649
    116  OE1       -5.7600   17.1530   23.9170 O.co2  72  GLU72      -0.2457
    117  OE2       -7.7980   17.6410   23.2780 O.co2  72  GLU72      -0.2457
    118  N        -10.9810   18.7930   19.1030 N.3    76  GLU76      -0.1245
    119  CA       -12.2830   18.3590   19.6060 C.3    76  GLU76       0.1567
    120  C        -13.4860   19.1070   19.0390 C.2    76  GLU76       0.2260
    121  O        -14.6000   18.5690   19.0090 O.2    76  GLU76      -0.2867
    122  CB       -12.3180   18.4540   21.1390 C.3    76  GLU76       0.0388
    123  CG       -11.2740   17.5970   21.8450 C.3    76  GLU76       0.1160
    124  CD       -11.5680   17.4030   23.3310 C.2    76  GLU76       0.3649
    125  OE1      -11.9720   18.3740   23.9950 O.co2  76  GLU76      -0.2457
    126  OE2      -11.3860   16.2780   23.8370 O.co2  76  GLU76      -0.2457
    127  N         -5.9580   18.6250   40.2750 N.3    91  VAL91      -0.1245
    128  CA        -7.2230   17.8960   40.3240 C.3    91  VAL91       0.1561
    129  C         -7.4880   17.1670   41.6310 C.2    91  VAL91       0.2260
    130  O         -8.6190   17.1460   42.1060 O.2    91  VAL91      -0.2867
    131  CB        -7.3390   16.8920   39.1490 C.3    91  VAL91       0.0252
    132  CG1       -6.9620   17.5870   37.8300 C.3    91  VAL91       0.0019
    133  CG2       -6.4700   15.6790   39.4060 C.3    91  VAL91       0.0019
    134  N         -1.5260   15.6070   38.7500 N.3    98  GLU98      -0.1245
    135  CA        -2.1180   16.1800   37.5450 C.3    98  GLU98       0.1567
    136  C         -2.5250   17.6240   37.8140 C.2    98  GLU98       0.2260
    137  O         -3.2890   17.8970   38.7380 O.2    98  GLU98      -0.2867
    138  CB        -3.3500   15.3980   37.0870 C.3    98  GLU98       0.0388
    139  CG        -4.1530   16.1400   36.0150 C.3    98  GLU98       0.1160
    140  CD        -5.3300   15.3450   35.4590 C.2    98  GLU98       0.3649
    141  OE1       -5.8730   14.4680   36.1600 O.co2  98  GLU98      -0.2457
    142  OE2       -5.7240   15.6140   34.3040 O.co2  98  GLU98      -0.2457
    143  N         -4.1370   21.1060   36.0190 N.3   100  THR100     -0.1218
    144  CA        -4.9260   21.5540   34.8800 C.3   100  THR100      0.1862
    145  C         -4.8660   23.0630   34.6850 C.2   100  THR100      0.2287
    146  O         -5.0870   23.8300   35.6280 O.2   100  THR100     -0.2866
    147  CB        -6.3910   21.1480   35.0700 C.3   100  THR100      0.1770
    148  OG1       -6.4540   19.7430   35.3380 O.3   100  THR100     -0.2211
    149  CG2       -7.2130   21.4860   33.8290 C.3   100  THR100      0.0375
    150  N        -15.9380   12.4190   20.5010 N.3   121  ILE121     -0.1245
    151  CA       -16.4900   13.5150   21.2890 C.3   121  ILE121      0.1561
    152  C        -17.8680   13.9930   20.8400 C.2   121  ILE121      0.2260
    153  O        -18.1920   13.9560   19.6560 O.2   121  ILE121     -0.2867
    154  CB       -15.5020   14.7220   21.2820 C.3   121  ILE121      0.0252
    155  CG1      -14.4920   14.5660   22.4210 C.3   121  ILE121      0.0019
    156  CG2      -16.2480   16.0470   21.4240 C.3   121  ILE121      0.0019
    157  CD1      -13.7220   13.2680   22.3910 C.3   121  ILE121      0.0001
    158  N        -17.5970   17.1260   35.3060 N.3   143  SER143     -0.1217
    159  CA       -16.1930   16.7730   35.4930 C.3   143  SER143      0.1889
    160  C        -15.7040   18.0700   36.1480 C.2   143  SER143      0.2288
    161  O        -16.3920   19.0910   36.0820 O.2   143  SER143     -0.2866
    162  CB       -15.4640   16.6000   34.1650 C.3   143  SER143      0.2089
    163  OG       -15.3550   17.8500   33.5040 O.3   143  SER143     -0.2183
    164  N        -13.5150   20.1060   35.1370 N.3   145  THR145     -0.1218
    165  CA       -13.4330   21.1370   34.1030 C.3   145  THR145      0.1862
    166  C        -14.7990   21.7190   33.7730 C.2   145  THR145      0.2287
    167  O        -14.9320   22.9290   33.5990 O.2   145  THR145     -0.2866
    168  CB       -12.7610   20.6170   32.7860 C.3   145  THR145      0.1770
    169  OG1      -13.5020   19.5200   32.2440 O.3   145  THR145     -0.2211
    170  CG2      -11.3210   20.1830   33.0550 C.3   145  THR145      0.0375
@<TRIPOS>BOND
     1   121   120    2
     2   120   119    1
     3   118   119    1
     4   101   100    2
     5   103   104    1
     6   103   102    1
     7   119   122    1
     8   153   152    2
     9   104   105    1
    10    99   102    1
    11    99   100    1
    12    99    98    1
    13   100   109   am
    14   150   151    1
    15   152   151    1
    16   112   111    2
    17   122   123    1
    18   105   106    2
    19   154   151    1
    20   154   156    1
    21   154   155    1
    22   111   110    1
    23   109   110    1
    24   107   106    1
    25   123   124    1
    26   110   113    1
    27   106   108    1
    28   157   155    1
    29    94    93    1
    30    94    95    1
    31   117   115   ar
    32    93    90    1
    33   124   126   ar
    34   124   125   ar
    35   113   114    1
    36   115   116   ar
    37   115   114    1
    38    95    96   ar
    39    95    97   ar
    40    10     9    1
    41    90    91    1
    42    90    89    1
    43    91    92    2
    44    11     9    1
    45     9     8    2
    46    47    44    1
    47    47    48    1
    48    50    49    2
    49     8     7    1
    50    44    43    1
    51    44    45    1
    52     7     6    1
    53    49    51   am
    54    49    48    1
    55    84    83    2
    56    75    74    2
    57    72    73    1
    58    45    46    2
    59     6     5    1
    60    74    73    1
    61    74    77   am
    62    78    77    1
    63    78    79    1
    64    83    82    1
    65    73    76    1
    66    81    79   am
    67    81    82    1
    68    79    80    2
    69     5     2    1
    70    82    85    1
    71    85    86    1
    72    66    65    2
    73    61    60    1
    74     2     3    1
    75     2     1    1
    76    86    87    1
    77    86    88    1
    78    18    16    1
    79    52    53    1
    80     4     3    2
    81    62    60    1
    82    60    59    2
    83    65    64    1
    84     3    12   am
    85    59    58    1
    86    58    57    1
    87    67    64    1
    88    67    68    1
    89    53    54    1
    90    53    56    1
    91    70    69   ar
    92    63    64    1
    93    12    13    1
    94    71    69   ar
    95    69    68    1
    96    57    56    1
    97    16    13    1
    98    16    17    1
    99    13    14    1
   100    54    55    2
   101    40    39    1
   102    40    41    2
   103    39    42    1
   104    39    38    1
   105    17    19    1
   106   169   168    1
   107    14    15    2
   108    14    20   am
   109   168   170    1
   110   168   165    1
   111    20    21    1
   112    36    37   ar
   113    36    34   ar
   114   163   162    1
   115   167   166    2
   116    37    35   ar
   117   166   165    1
   118   149   147    1
   119   165   164    1
   120    34    33   ar
   121   162   159    1
   122    23    22    2
   123   142   140   ar
   124    21    22    1
   125    21    24    1
   126   145   144    1
   127   145   146    2
   128    35    33   ar
   129    30    31    2
   130    30    29    1
   131   144   147    1
   132   144   143    1
   133    25    24    1
   134    25    27    1
   135    25    26    1
   136    33    32    1
   137   147   148    1
   138   158   159    1
   139   140   139    1
   140   140   141   ar
   141   159   160    1
   142    29    32    1
   143    29    28    1
   144   139   138    1
   145   161   160    2
   146   138   135    1
   147   135   136    1
   148   135   134    1
   149   136   137    2
   150   132   131    1
   151   131   133    1
   152   131   128    1
   153   127   128    1
   154   128   129    1
   155   129   130    2
