@<TRIPOS>MOLECULE
tmp/1v8sA00.pdb
 103 97 0 0 0
SMALL
GASTEIGER

@<TRIPOS>ATOM
      1  N          4.4350    0.1250   49.4260 N.3     8  ARG8       -0.1231
      2  CA         5.2600    0.7900   48.4270 C.3     8  ARG8        0.1694
      3  C          6.3390    1.7040   49.0060 C.2     8  ARG8        0.2592
      4  O          7.5210    1.4610   48.7980 O.2     8  ARG8       -0.2718
      5  CB         4.3650    1.5820   47.4730 C.3     8  ARG8        0.0321
      6  CG         4.2680    0.9830   46.0820 C.3     8  ARG8        0.0489
      7  CD         2.9220    1.2930   45.4350 C.3     8  ARG8        0.2205
      8  NE         1.8330    0.5410   46.0610 N.pl3   8  ARG8       -0.0865
      9  CZ         0.7720    1.0980   46.6380 C.cat   8  ARG8        0.5346
     10  NH1        0.6570    2.4160   46.6700 N.pl3   8  ARG8        0.1354
     11  NH2       -0.1710    0.3400   47.1850 N.pl3   8  ARG8        0.1354
     12  N          5.9410    2.7540   49.7220 N.am    9  ILE9       -0.1966
     13  CA         6.9250    3.6710   50.3010 C.3     9  ILE9        0.1727
     14  C          7.0430    3.5860   51.8190 C.2     9  ILE9        0.2616
     15  O          7.6070    4.4860   52.4420 O.2     9  ILE9       -0.2715
     16  CB         6.6210    5.1500   49.9590 C.3     9  ILE9        0.0290
     17  CG1        5.3350    5.5900   50.6590 C.3     9  ILE9        0.0022
     18  CG2        6.5090    5.3290   48.4530 C.3     9  ILE9        0.0023
     19  CD1        5.0750    7.0650   50.5540 C.3     9  ILE9        0.0001
     20  N          6.5100    2.5240   52.4160 N.am   10  LEU10      -0.1977
     21  CA         6.5930    2.3690   53.8670 C.3    10  LEU10       0.1596
     22  C          6.1700    0.9990   54.3770 C.2    10  LEU10       0.2287
     23  O          5.4270    0.2720   53.7130 O.2    10  LEU10      -0.2864
     24  CB         5.7340    3.4380   54.5640 C.3    10  LEU10       0.0297
     25  CG         4.2080    3.3630   54.4400 C.3    10  LEU10       0.0022
     26  CD1        3.6600    2.2940   55.3740 C.3    10  LEU10       0.0001
     27  CD2        3.5970    4.7070   54.7960 C.3    10  LEU10       0.0001
     28  N          2.3980   20.1720   44.5970 N.3    42  GLN42      -0.1245
     29  CA         1.7560   19.0340   43.9640 C.3    42  GLN42       0.1566
     30  C          0.6410   18.5820   44.8800 C.2    42  GLN42       0.2260
     31  O          0.6340   18.9150   46.0660 O.2    42  GLN42      -0.2867
     32  CB         2.7590   17.8970   43.7480 C.3    42  GLN42       0.0367
     33  CG         3.4250   17.4010   45.0170 C.3    42  GLN42       0.0905
     34  CD         4.4730   16.3360   44.7450 C.2    42  GLN42       0.2608
     35  OE1        4.1670   15.2590   44.2210 O.2    42  GLN42      -0.2717
     36  NE2        5.7180   16.6340   45.0940 N.am   42  GLN42      -0.0878
     37  N         -1.1820   16.5040   47.3970 N.3    44  ARG44      -0.1231
     38  CA        -0.7410   15.5940   48.4360 C.3    44  ARG44       0.1679
     39  C         -1.9830   15.0100   49.1210 C.2    44  ARG44       0.2434
     40  O         -2.5360   15.6110   50.0380 O.2    44  ARG44      -0.2733
     41  CB         0.1170   16.3530   49.4520 C.3    44  ARG44       0.0321
     42  CG         1.4600   16.8380   48.9100 C.3    44  ARG44       0.0489
     43  CD         2.3360   15.6610   48.5100 C.3    44  ARG44       0.2205
     44  NE         3.7450   16.0280   48.4440 N.pl3  44  ARG44      -0.0865
     45  CZ         4.7120   15.2150   48.0360 C.cat  44  ARG44       0.5346
     46  NH1        4.4230   13.9790   47.6480 N.pl3  44  ARG44       0.1354
     47  NH2        5.9720   15.6330   48.0310 N.pl3  44  ARG44       0.1354
     48  N         -2.4320   13.8250   48.6810 N.am   45  PRO45      -0.2718
     49  CA        -3.6140   13.1750   49.2620 C.3    45  PRO45       0.1535
     50  C         -3.5390   13.0570   50.7850 C.2    45  PRO45       0.2598
     51  O         -4.5460   13.1740   51.4750 O.2    45  PRO45      -0.2715
     52  CB        -3.6260   11.8090   48.5800 C.3    45  PRO45       0.0310
     53  CG        -2.9690   12.0790   47.2580 C.3    45  PRO45       0.0237
     54  CD        -1.8180   12.9660   47.6530 C.3    45  PRO45       0.0939
     55  N         -2.3390   12.8310   51.3040 N.am   46  ALA46      -0.1978
     56  CA        -2.1500   12.6940   52.7420 C.3    46  ALA46       0.1597
     57  C         -2.6120   13.9080   53.5460 C.2    46  ALA46       0.2287
     58  O         -3.0080   13.7660   54.7050 O.2    46  ALA46      -0.2864
     59  CB        -0.6840   12.4050   53.0490 C.3    46  ALA46       0.0319
     60  N         12.1230   17.6880   45.8290 N.3    56  ALA56      -0.1231
     61  CA        12.4870   16.6130   46.7460 C.3    56  ALA56       0.1694
     62  C         11.9130   15.2670   46.3170 C.2    56  ALA56       0.2593
     63  O         11.0210   15.2070   45.4740 O.2    56  ALA56      -0.2718
     64  CB        12.0100   16.9600   48.1530 C.3    56  ALA56       0.0304
     65  N         12.4270   14.1910   46.9070 N.am   57  GLY57      -0.1942
     66  CA        11.9470   12.8640   46.5640 C.3    57  GLY57       0.2014
     67  C         12.6790   11.7300   47.2580 C.2    57  GLY57       0.2638
     68  O         13.5970   11.9520   48.0410 O.2    57  GLY57      -0.2714
     69  N         12.2680   10.5030   46.9600 N.am   58  LEU58      -0.1977
     70  CA        12.8740    9.3170   47.5550 C.3    58  LEU58       0.1596
     71  C         14.1430    8.8640   46.8350 C.2    58  LEU58       0.2287
     72  O         14.2620    8.9670   45.6110 O.2    58  LEU58      -0.2864
     73  CB        11.8620    8.1660   47.5700 C.3    58  LEU58       0.0297
     74  CG        10.8750    7.9920   48.7360 C.3    58  LEU58       0.0022
     75  CD1       10.3250    9.3250   49.2000 C.3    58  LEU58       0.0001
     76  CD2        9.7420    7.0730   48.2840 C.3    58  LEU58       0.0001
     77  N         16.2410    6.2710   45.2220 N.3    60  GLU60      -0.1245
     78  CA        15.9800    4.9850   44.5900 C.3    60  GLU60       0.1567
     79  C         17.0830    3.9710   44.8690 C.2    60  GLU60       0.2260
     80  O         18.1800    4.3270   45.3030 O.2    60  GLU60      -0.2867
     81  CB        15.8350    5.1750   43.0800 C.3    60  GLU60       0.0388
     82  CG        14.7000    6.1060   42.6710 C.3    60  GLU60       0.1160
     83  CD        13.3360    5.5190   42.9600 C.2    60  GLU60       0.3649
     84  OE1       13.0020    4.4770   42.3570 O.co2  60  GLU60      -0.2457
     85  OE2       12.6000    6.0930   43.7870 O.co2  60  GLU60      -0.2457
     86  N         16.0670   14.4140   41.1250 N.3    72  GLU72      -0.1245
     87  CA        14.8560   15.1280   41.5160 C.3    72  GLU72       0.1567
     88  C         14.7900   16.5310   40.9370 C.2    72  GLU72       0.2260
     89  O         13.7330   16.9810   40.4930 O.2    72  GLU72      -0.2867
     90  CB        14.7400   15.1850   43.0430 C.3    72  GLU72       0.0388
     91  CG        14.4070   13.8390   43.6710 C.3    72  GLU72       0.1160
     92  CD        13.0840   13.2730   43.1760 C.2    72  GLU72       0.3649
     93  OE1       12.7710   12.1040   43.4990 O.co2  72  GLU72      -0.2457
     94  OE2       12.3540   13.9970   42.4630 O.co2  72  GLU72      -0.2457
     95  N         11.7150   17.0440   38.3720 N.3    76  GLU76      -0.1245
     96  CA        10.6650   17.9620   38.8030 C.3    76  GLU76       0.1567
     97  C         10.7280   19.3820   38.2440 C.2    76  GLU76       0.2260
     98  O          9.6960   20.0390   38.1260 O.2    76  GLU76      -0.2867
     99  CB        10.6030   18.0210   40.3370 C.3    76  GLU76       0.0388
    100  CG        10.4480   16.6550   41.0100 C.3    76  GLU76       0.1160
    101  CD        10.0130   16.7480   42.4720 C.2    76  GLU76       0.3649
    102  OE1       10.3860   17.7280   43.1550 O.co2  76  GLU76      -0.2457
    103  OE2        9.3030   15.8280   42.9400 O.co2  76  GLU76      -0.2457
@<TRIPOS>BOND
     1    98    97    2
     2    97    96    1
     3    95    96    1
     4    96    99    1
     5    99   100    1
     6    89    88    2
     7    88    87    1
     8   100   101    1
     9    86    87    1
    10    87    90    1
    11    84    83   ar
    12    94    92   ar
    13   101   103   ar
    14   101   102   ar
    15    82    83    1
    16    82    81    1
    17    83    85   ar
    18    90    91    1
    19    81    78    1
    20    92    93   ar
    21    92    91    1
    22    32    29    1
    23    32    33    1
    24    29    28    1
    25    29    30    1
    26    35    34    2
    27    78    79    1
    28    78    77    1
    29    34    33    1
    30    34    36   am
    31    79    80    2
    32    30    31    2
    33     7     8    1
    34     7     6    1
    35    63    62    2
    36    72    71    2
    37    60    61    1
    38     8     9    2
    39     6     5    1
    40    62    61    1
    41    62    65   am
    42    66    65    1
    43    66    67    1
    44     9    10    1
    45     9    11    1
    46    61    64    1
    47    71    70    1
    48    69    67   am
    49    69    70    1
    50    67    68    2
    51    53    54    1
    52    53    52    1
    53    37    38    1
    54     5     2    1
    55    70    73    1
    56    73    74    1
    57    46    45    1
    58    54    48    1
    59    47    45    1
    60    45    44    2
    61    76    74    1
    62     2     3    1
    63     2     1    1
    64    38    39    1
    65    38    41    1
    66    44    43    1
    67    18    16    1
    68    43    42    1
    69    52    49    1
    70    48    39   am
    71    48    49    1
    72    74    75    1
    73     4     3    2
    74    42    41    1
    75     3    12   am
    76    39    40    2
    77    49    50    1
    78    12    13    1
    79    16    13    1
    80    16    17    1
    81    13    14    1
    82    19    17    1
    83    50    55   am
    84    50    51    2
    85    55    56    1
    86    14    20   am
    87    14    15    2
    88    20    21    1
    89    56    59    1
    90    56    57    1
    91    57    58    2
    92    23    22    2
    93    21    22    1
    94    21    24    1
    95    25    24    1
    96    25    27    1
    97    25    26    1
