@<TRIPOS>MOLECULE
tmp/1v8tA00.pdb
 96 87 0 0 0
SMALL
GASTEIGER

@<TRIPOS>ATOM
      1  N          0.6810    6.3900   30.0850 N.3     9  ILE9       -0.1245
      2  CA         0.2930    7.7140   30.5870 C.3     9  ILE9        0.1561
      3  C          0.4380    7.8500   32.1000 C.2     9  ILE9        0.2260
      4  O          0.0800    8.8850   32.6600 O.2     9  ILE9       -0.2867
      5  CB        -1.1810    8.0820   30.2450 C.3     9  ILE9        0.0252
      6  CG1       -2.1350    7.2980   31.1410 C.3     9  ILE9        0.0019
      7  CG2       -1.4730    7.8040   28.7790 C.3     9  ILE9        0.0019
      8  CD1       -3.5750    7.6760   30.9560 C.3     9  ILE9        0.0001
      9  N          1.7280   11.2340   36.7900 N.3    23  HIS23      -0.1241
     10  CA         0.9900   11.4480   35.5600 C.3    23  HIS23       0.1621
     11  C          1.4820   12.6990   34.8520 C.2    23  HIS23       0.2264
     12  O          1.9460   13.6420   35.4940 O.2    23  HIS23      -0.2867
     13  CB        -0.4800   11.5770   35.9200 C.3    23  HIS23       0.0745
     14  CG        -1.4010   11.5540   34.7490 C.ar   23  HIS23       0.0817
     15  ND1       -1.3610   12.5050   33.7540 N.ar   23  HIS23      -0.2268
     16  CD2       -2.4260   10.7270   34.4420 C.ar   23  HIS23       0.1154
     17  CE1       -2.3260   12.2660   32.8860 C.ar   23  HIS23       0.1986
     18  NE2       -2.9870   11.1930   33.2820 N.ar   23  HIS23      -0.2212
     19  N         -1.3690   18.2780   32.2510 N.3    26  ALA26      -0.1245
     20  CA        -2.3510   18.4560   31.1970 C.3    26  ALA26       0.1562
     21  C         -2.8240   19.8980   31.0480 C.2    26  ALA26       0.2260
     22  O         -2.5150   20.7590   31.8750 O.2    26  ALA26      -0.2867
     23  CB        -3.5360   17.5510   31.4630 C.3    26  ALA26       0.0290
     24  N        -16.0910   12.1860   24.7340 N.3    42  GLN42      -0.1245
     25  CA       -15.4180   11.0520   24.1330 C.3    42  GLN42       0.1566
     26  C        -15.6670    9.8970   25.0800 C.2    42  GLN42       0.2260
     27  O        -15.8850   10.1130   26.2710 O.2    42  GLN42      -0.2867
     28  CB       -13.9230   11.3460   23.9980 C.3    42  GLN42       0.0367
     29  CG       -13.1780   11.4650   25.3110 C.3    42  GLN42       0.0905
     30  CD       -11.8580   12.2080   25.1650 C.2    42  GLN42       0.2608
     31  OE1      -11.7980   13.4270   25.3480 O.2    42  GLN42      -0.2717
     32  NE2      -10.7940   11.4780   24.8190 N.am   42  GLN42      -0.0878
     33  N        -15.0460    7.2210   27.6570 N.3    44  ARG44      -0.1245
     34  CA       -14.0270    7.0950   28.6890 C.3    44  ARG44       0.1563
     35  C        -14.1210    5.7260   29.3570 C.2    44  ARG44       0.2260
     36  O        -14.9290    5.5150   30.2700 O.2    44  ARG44      -0.2867
     37  CB       -14.2060    8.1960   29.7380 C.3    44  ARG44       0.0307
     38  CG       -14.0200    9.5930   29.2010 C.3    44  ARG44       0.0489
     39  CD       -12.6190    9.7650   28.6220 C.3    44  ARG44       0.2205
     40  NE       -12.1370   11.1280   28.7930 N.pl3  44  ARG44      -0.0865
     41  CZ       -10.9810   11.5850   28.3260 C.cat  44  ARG44       0.5346
     42  NH1      -10.1720   10.7850   27.6460 N.pl3  44  ARG44       0.1354
     43  NH2      -10.6330   12.8470   28.5540 N.pl3  44  ARG44       0.1354
     44  N        -16.9840   17.5580   29.0890 N.3    53  GLU53      -0.1245
     45  CA       -15.6420   18.1020   29.2960 C.3    53  GLU53       0.1567
     46  C        -15.4000   19.2940   28.3820 C.2    53  GLU53       0.2260
     47  O        -16.2860   19.7060   27.6360 O.2    53  GLU53      -0.2867
     48  CB       -14.5850   17.0310   28.9790 C.3    53  GLU53       0.0388
     49  CG       -14.7050   15.7490   29.7860 C.3    53  GLU53       0.1160
     50  CD       -13.6460   14.7130   29.4210 C.2    53  GLU53       0.3649
     51  OE1      -12.4490   15.0740   29.3490 O.co2  53  GLU53      -0.2457
     52  OE2      -14.0130   13.5320   29.2180 O.co2  53  GLU53      -0.2457
     53  N         -9.1710   19.3480   26.0930 N.3    56  ALA56      -0.1231
     54  CA        -8.0550   19.0770   27.0030 C.3    56  ALA56       0.1694
     55  C         -7.1510   17.9470   26.5250 C.2    56  ALA56       0.2593
     56  O         -7.5090   17.1970   25.6200 O.2    56  ALA56      -0.2718
     57  CB        -8.5970   18.7450   28.4000 C.3    56  ALA56       0.0304
     58  N         -5.9830   17.8230   27.1510 N.am   57  GLY57      -0.1942
     59  CA        -5.0480   16.7750   26.7820 C.3    57  GLY57       0.2014
     60  C         -3.7380   16.8000   27.5530 C.2    57  GLY57       0.2638
     61  O         -3.5000   17.6680   28.3910 O.2    57  GLY57      -0.2714
     62  N         -2.8790   15.8340   27.2660 N.am   58  LEU58      -0.1977
     63  CA        -1.5820   15.7430   27.9150 C.3    58  LEU58       0.1596
     64  C         -0.5440   16.6030   27.1960 C.2    58  LEU58       0.2287
     65  O         -0.5270   16.6770   25.9650 O.2    58  LEU58      -0.2864
     66  CB        -1.1070   14.2890   27.9170 C.3    58  LEU58       0.0297
     67  CG        -1.3980   13.3840   29.1180 C.3    58  LEU58       0.0022
     68  CD1       -2.7670   13.6690   29.7050 C.3    58  LEU58       0.0001
     69  CD2       -1.2870   11.9360   28.6660 C.3    58  LEU58       0.0001
     70  N         -4.4010   21.0520   21.4670 N.3    72  GLU72      -0.1245
     71  CA        -5.6210   20.3620   21.8570 C.3    72  GLU72       0.1567
     72  C         -6.8790   20.9920   21.2720 C.2    72  GLU72       0.2260
     73  O         -7.7690   20.2960   20.7860 O.2    72  GLU72      -0.2867
     74  CB        -5.7200   20.2970   23.3790 C.3    72  GLU72       0.0388
     75  CG        -4.7140   19.3390   24.0040 C.3    72  GLU72       0.1160
     76  CD        -4.8540   17.9270   23.4710 C.2    72  GLU72       0.3649
     77  OE1       -4.0000   17.0700   23.7980 O.co2  72  GLU72      -0.2457
     78  OE2       -5.8220   17.6690   22.7220 O.co2  72  GLU72      -0.2457
     79  N         -8.9120   18.7000   18.7090 N.3    76  GLU76      -0.1245
     80  CA       -10.2210   18.2380   19.1520 C.3    76  GLU76       0.1567
     81  C        -11.4120   19.0040   18.5790 C.2    76  GLU76       0.2260
     82  O        -12.5020   18.4480   18.4740 O.2    76  GLU76      -0.2867
     83  CB       -10.2920   18.2380   20.6860 C.3    76  GLU76       0.0388
     84  CG        -9.2080   17.3990   21.3620 C.3    76  GLU76       0.1160
     85  CD        -9.4670   17.1850   22.8480 C.2    76  GLU76       0.3649
     86  OE1      -10.1170   18.0550   23.4710 O.co2  76  GLU76      -0.2457
     87  OE2       -9.0120   16.1560   23.4000 O.co2  76  GLU76      -0.2457
     88  N         -0.9320   14.6900   38.7860 N.3    98  GLU98      -0.1245
     89  CA        -1.4050   15.3000   37.5480 C.3    98  GLU98       0.1567
     90  C         -1.7940   16.7380   37.8280 C.2    98  GLU98       0.2260
     91  O         -2.5620   17.0160   38.7540 O.2    98  GLU98      -0.2867
     92  CB        -2.6120   14.5490   36.9700 C.3    98  GLU98       0.0388
     93  CG        -3.3340   15.3310   35.8660 C.3    98  GLU98       0.1160
     94  CD        -4.3680   14.5100   35.1070 C.2    98  GLU98       0.3649
     95  OE1       -4.9790   13.5900   35.7000 O.co2  98  GLU98      -0.2457
     96  OE2       -4.5810   14.7950   33.9100 O.co2  98  GLU98      -0.2457
@<TRIPOS>BOND
     1    82    81    2
     2    81    80    1
     3    79    80    1
     4    80    83    1
     5    83    84    1
     6    73    72    2
     7    72    71    1
     8    84    85    1
     9    70    71    1
    10    71    74    1
    11    78    76   ar
    12    85    87   ar
    13    85    86   ar
    14    74    75    1
    15    76    77   ar
    16    76    75    1
    17    28    25    1
    18    28    29    1
    19    25    24    1
    20    25    26    1
    21    32    30   am
    22    26    27    2
    23    30    29    1
    24    30    31    2
    25    56    55    2
    26    65    64    2
    27    53    54    1
    28    55    54    1
    29    55    58   am
    30    59    58    1
    31    59    60    1
    32    54    57    1
    33    64    63    1
    34    62    60   am
    35    62    63    1
    36    60    61    2
    37    47    46    2
    38    42    41    1
    39    33    34    1
    40    63    66    1
    41    66    67    1
    42    41    43    1
    43    41    40    2
    44    46    45    1
    45    39    40    1
    46    39    38    1
    47    69    67    1
    48    34    35    1
    49    34    37    1
    50     7     5    1
    51    48    45    1
    52    48    49    1
    53    44    45    1
    54    67    68    1
    55    38    37    1
    56    52    50   ar
    57    51    50   ar
    58    35    36    2
    59    50    49    1
    60     1     2    1
    61     5     2    1
    62     5     6    1
    63     2     3    1
    64     8     6    1
    65    21    20    1
    66    21    22    2
    67    20    23    1
    68    20    19    1
    69     3     4    2
    70    17    18   ar
    71    17    15   ar
    72    18    16   ar
    73    15    14   ar
    74    96    94   ar
    75    16    14   ar
    76    14    13    1
    77    11    12    2
    78    11    10    1
    79    94    95   ar
    80    94    93    1
    81    10    13    1
    82    10     9    1
    83    93    92    1
    84    92    89    1
    85    89    90    1
    86    89    88    1
    87    90    91    2
