@<TRIPOS>MOLECULE
tmp/1v9aB00.pdb
 71 69 0 0 0
SMALL
GASTEIGER

@<TRIPOS>ATOM
      1  N        -12.6910   56.9820   56.6120 N.3    34  ARG34      -0.1245
      2  CA       -11.4390   57.1820   57.2940 C.3    34  ARG34       0.1563
      3  C        -11.1290   58.6720   57.3070 C.2    34  ARG34       0.2260
      4  O        -11.4990   59.4120   56.3940 O.2    34  ARG34      -0.2867
      5  CB       -10.3660   56.4460   56.5300 C.3    34  ARG34       0.0307
      6  CG        -9.0330   56.3910   57.2430 C.3    34  ARG34       0.0489
      7  CD        -8.1360   55.5400   56.4220 C.3    34  ARG34       0.2205
      8  NE        -7.1810   56.3180   55.6580 N.pl3  34  ARG34      -0.0865
      9  CZ        -6.2450   55.7820   54.8900 C.cat  34  ARG34       0.5346
     10  NH1       -6.1530   54.4680   54.7770 N.pl3  34  ARG34       0.1354
     11  NH2       -5.3880   56.5600   54.2500 N.pl3  34  ARG34       0.1354
     12  N         -1.3060   59.5360   45.1100 N.3   128  VAL128     -0.1245
     13  CA        -1.6720   58.1240   44.9620 C.3   128  VAL128      0.1561
     14  C         -2.9900   57.9850   44.1870 C.2   128  VAL128      0.2260
     15  O         -4.0020   58.5930   44.5360 O.2   128  VAL128     -0.2867
     16  CB        -1.8450   57.4250   46.3380 C.3   128  VAL128      0.0252
     17  CG1       -2.3080   55.9770   46.1410 C.3   128  VAL128      0.0019
     18  CG2       -0.5320   57.4410   47.1090 C.3   128  VAL128      0.0019
     19  N         -2.4550   63.2260   49.8810 N.3   150  MET150     -0.1230
     20  CA        -1.9880   61.8400   49.8590 C.3   150  MET150      0.1702
     21  C         -0.5710   61.7490   49.2980 C.2   150  MET150      0.2593
     22  O         -0.2170   60.7670   48.6330 O.2   150  MET150     -0.2718
     23  CB        -2.9210   60.9640   49.0140 C.3   150  MET150      0.0401
     24  CG        -4.2940   60.7770   49.6290 C.3   150  MET150      0.0596
     25  SD        -5.3240   59.6120   48.7250 S.3   150  MET150     -0.1393
     26  CE        -6.1500   60.7010   47.6210 C.3   150  MET150      0.0692
     27  N          0.2450   62.7580   49.5860 N.am  151  GLY151     -0.1942
     28  CA         1.5990   62.7610   49.0600 C.3   151  GLY151      0.2014
     29  C          2.7390   62.6310   50.0450 C.2   151  GLY151      0.2639
     30  O          3.8850   62.9060   49.6970 O.2   151  GLY151     -0.2714
     31  N          2.4500   62.1960   51.2640 N.am  152  VAL152     -0.1963
     32  CA         3.4940   62.0530   52.2740 C.3   152  VAL152      0.1727
     33  C          4.4570   60.8860   52.0410 C.2   152  VAL152      0.2617
     34  O          5.6710   61.0820   51.9650 O.2   152  VAL152     -0.2715
     35  CB         2.8730   61.8980   53.6760 C.3   152  VAL152      0.0290
     36  CG1        3.9480   61.5250   54.6930 C.3   152  VAL152      0.0023
     37  CG2        2.1870   63.1960   54.0740 C.3   152  VAL152      0.0023
     38  N          3.9160   59.6740   51.9590 N.am  153  GLY153     -0.1940
     39  CA         4.7490   58.5010   51.7410 C.3   153  GLY153      0.2014
     40  C          5.6280   58.6230   50.5060 C.2   153  GLY153      0.2638
     41  O          6.7350   58.1010   50.4590 O.2   153  GLY153     -0.2714
     42  N          5.1440   59.3410   49.5050 N.am  154  ARG154     -0.1977
     43  CA         5.9030   59.5110   48.2780 C.3   154  ARG154      0.1597
     44  C          6.4630   60.9080   48.0670 C.2   154  ARG154      0.2287
     45  O          6.7420   61.2990   46.9310 O.2   154  ARG154     -0.2864
     46  CB         5.0270   59.1480   47.1020 C.3   154  ARG154      0.0334
     47  CG         4.6300   57.7060   47.1030 C.3   154  ARG154      0.0492
     48  CD         3.5840   57.4920   46.0590 C.3   154  ARG154      0.2205
     49  NE         3.2740   56.0770   45.9360 N.pl3 154  ARG154     -0.0865
     50  CZ         2.3050   55.5930   45.1720 C.cat 154  ARG154      0.5346
     51  NH1        1.5470   56.4090   44.4590 N.pl3 154  ARG154      0.1354
     52  NH2        2.0950   54.2880   45.1200 N.pl3 154  ARG154      0.1354
     53  N          1.3830   61.1360   57.5250 N.3   203  PRO203     -0.2103
     54  CA         0.0390   61.4160   57.0170 C.3   203  PRO203      0.1489
     55  C         -0.9610   61.3460   58.1870 C.2   203  PRO203      0.2418
     56  O         -0.6680   60.7520   59.2210 O.2   203  PRO203     -0.2734
     57  CB        -0.1710   60.3010   56.0000 C.3   203  PRO203      0.0282
     58  CG         0.5190   59.1340   56.6760 C.3   203  PRO203      0.0208
     59  CD         1.8000   59.7550   57.2060 C.3   203  PRO203      0.0893
     60  N         -2.1490   61.9550   58.0370 N.am  204  PRO204     -0.2718
     61  CA        -2.5650   62.6830   56.8380 C.3   204  PRO204      0.1535
     62  C         -2.0290   64.1120   56.8640 C.2   204  PRO204      0.2598
     63  O         -2.0950   64.8080   57.8900 O.2   204  PRO204     -0.2715
     64  CB        -4.0830   62.6360   56.9230 C.3   204  PRO204      0.0310
     65  CG        -4.3120   62.8160   58.4030 C.3   204  PRO204      0.0237
     66  CD        -3.2440   61.9030   59.0270 C.3   204  PRO204      0.0939
     67  N         -1.4880   64.5390   55.7300 N.am  205  ALA205     -0.1978
     68  CA        -0.9710   65.8890   55.6280 C.3   205  ALA205      0.1597
     69  C         -1.2790   66.5700   54.3170 C.2   205  ALA205      0.2287
     70  O         -1.3280   65.9680   53.2550 O.2   205  ALA205     -0.2864
     71  CB         0.5600   65.9220   55.8950 C.3   205  ALA205      0.0319
@<TRIPOS>BOND
     1    14    15    2
     2    14    13    1
     3    51    50    1
     4    13    12    1
     5    13    16    1
     6    52    50    1
     7    50    49    2
     8    49    48    1
     9    48    47    1
    10    17    16    1
    11    16    18    1
    12    45    44    2
    13    46    47    1
    14    46    43    1
    15    26    25    1
    16    44    43    1
    17    43    42    1
    18    22    21    2
    19    25    24    1
    20    23    24    1
    21    23    20    1
    22    28    27    1
    23    28    29    1
    24    21    27   am
    25    21    20    1
    26    42    40   am
    27    30    29    2
    28    20    19    1
    29    29    31   am
    30    41    40    2
    31    40    39    1
    32    31    32    1
    33    39    38    1
    34    38    33   am
    35    34    33    2
    36    33    32    1
    37    32    35    1
    38    70    69    2
    39    35    37    1
    40    35    36    1
    41    11     9    1
    42    69    68    1
    43    10     9    1
    44     9     8    2
    45    68    67    1
    46    68    71    1
    47     8     7    1
    48    67    62   am
    49    57    58    1
    50    57    54    1
    51     4     3    2
    52     7     6    1
    53     5     6    1
    54     5     2    1
    55     1     2    1
    56    58    59    1
    57    61    62    1
    58    61    64    1
    59    61    60    1
    60    62    63    2
    61    64    65    1
    62    54    53    1
    63    54    55    1
    64    59    53    1
    65     2     3    1
    66    60    55   am
    67    60    66    1
    68    55    56    2
    69    65    66    1
