@<TRIPOS>MOLECULE
tmp/1v9aB01.pdb
 166 161 0 0 0
SMALL
GASTEIGER

@<TRIPOS>ATOM
      1  N        -12.4320   69.3240   57.6530 N.3    10  PRO10      -0.2116
      2  CA       -11.0840   68.8100   57.9190 C.3    10  PRO10       0.1372
      3  C        -10.8520   68.1390   59.2870 C.2    10  PRO10       0.2244
      4  O         -9.8750   67.4100   59.4660 O.2    10  PRO10      -0.2868
      5  CB       -10.2040   70.0510   57.6960 C.3    10  PRO10       0.0268
      6  CG       -11.0450   71.1380   58.2050 C.3    10  PRO10       0.0207
      7  CD       -12.4360   70.8000   57.6540 C.3    10  PRO10       0.0892
      8  N        -12.6910   56.9820   56.6120 N.3    34  ARG34      -0.1231
      9  CA       -11.4390   57.1820   57.2940 C.3    34  ARG34       0.1694
     10  C        -11.1290   58.6720   57.3070 C.2    34  ARG34       0.2591
     11  O        -11.4990   59.4120   56.3940 O.2    34  ARG34      -0.2718
     12  CB       -10.3660   56.4460   56.5300 C.3    34  ARG34       0.0321
     13  CG        -9.0330   56.3910   57.2430 C.3    34  ARG34       0.0489
     14  CD        -8.1360   55.5400   56.4220 C.3    34  ARG34       0.2205
     15  NE        -7.1810   56.3180   55.6580 N.pl3  34  ARG34      -0.0865
     16  CZ        -6.2450   55.7820   54.8900 C.cat  34  ARG34       0.5346
     17  NH1       -6.1530   54.4680   54.7770 N.pl3  34  ARG34       0.1354
     18  NH2       -5.3880   56.5600   54.2500 N.pl3  34  ARG34       0.1354
     19  N        -10.4560   59.1120   58.3600 N.am   35  LEU35      -0.1980
     20  CA       -10.0830   60.5140   58.5040 C.3    35  LEU35       0.1596
     21  C        -11.2410   61.3650   58.9890 C.2    35  LEU35       0.2287
     22  O        -11.2600   62.5970   58.8230 O.2    35  LEU35      -0.2864
     23  CB        -9.5100   61.0820   57.1980 C.3    35  LEU35       0.0297
     24  CG        -8.2500   60.3280   56.7550 C.3    35  LEU35       0.0022
     25  CD1       -7.6670   60.9550   55.5050 C.3    35  LEU35       0.0001
     26  CD2       -7.2060   60.3300   57.8750 C.3    35  LEU35       0.0001
     27  N        -17.9160   61.6210   54.9660 N.3    73  LYS73      -0.1231
     28  CA       -16.5540   61.6300   54.4310 C.3    73  LYS73       0.1693
     29  C        -15.7760   62.8760   54.8770 C.2    73  LYS73       0.2593
     30  O        -16.3520   63.9560   55.0460 O.2    73  LYS73      -0.2718
     31  CB       -16.5800   61.6110   52.9170 C.3    73  LYS73       0.0285
     32  CG       -17.1140   60.3180   52.3510 C.3    73  LYS73       0.0035
     33  CD       -17.3070   60.4510   50.8690 C.3    73  LYS73       0.0206
     34  CE       -16.1010   59.9460   50.1250 C.3    73  LYS73       0.1093
     35  NZ       -15.9450   58.4870   50.3830 N.3    73  LYS73      -0.1314
     36  N        -14.4700   62.7210   55.0570 N.am   74  GLY74      -0.1942
     37  CA       -13.6460   63.8530   55.4790 C.3    74  GLY74       0.2014
     38  C        -13.6130   64.9720   54.4580 C.2    74  GLY74       0.2639
     39  O        -13.6830   64.7210   53.2480 O.2    74  GLY74      -0.2714
     40  N        -13.5150   66.2080   54.9460 N.am   75  GLY75      -0.1939
     41  CA       -13.4390   67.3670   54.0710 C.3    75  GLY75       0.2014
     42  C        -14.6810   67.5350   53.2260 C.2    75  GLY75       0.2639
     43  O        -15.7780   67.6680   53.7710 O.2    75  GLY75      -0.2714
     44  N        -14.5090   67.5870   51.9060 N.am   76  ASP76      -0.1957
     45  CA       -15.6520   67.6740   50.9910 C.3    76  ASP76       0.1825
     46  C        -15.6880   66.3020   50.3040 C.2    76  ASP76       0.2464
     47  O        -14.6600   65.7800   49.8630 O.2    76  ASP76      -0.2730
     48  CB       -15.4650   68.7910   49.9520 C.3    76  ASP76       0.1450
     49  CG       -16.6200   68.8720   48.9450 C.2    76  ASP76       0.3671
     50  OD1      -16.6370   68.0800   47.9600 O.co2  76  ASP76      -0.2456
     51  OD2      -17.5160   69.7260   49.1420 O.co2  76  ASP76      -0.2456
     52  N        -16.8760   65.7020   50.1930 N.am   77  PRO77      -0.2727
     53  CA       -17.0000   64.3810   49.5650 C.3    77  PRO77       0.1402
     54  C        -16.6540   64.2370   48.0780 C.2    77  PRO77       0.2269
     55  O        -16.3070   63.1390   47.6290 O.2    77  PRO77      -0.2865
     56  CB       -18.4550   63.9990   49.8650 C.3    77  PRO77       0.0296
     57  CG       -19.1480   65.3200   49.7850 C.3    77  PRO77       0.0237
     58  CD       -18.1980   66.2790   50.4990 C.3    77  PRO77       0.0939
     59  N        -14.0320   65.5460   46.2530 N.3    79  VAL79      -0.1231
     60  CA       -12.6630   65.7060   45.7940 C.3    79  VAL79       0.1692
     61  C        -11.7270   64.7210   46.4720 C.2    79  VAL79       0.2592
     62  O        -11.6260   64.6760   47.7000 O.2    79  VAL79      -0.2718
     63  CB       -12.1210   67.1670   45.9980 C.3    79  VAL79       0.0266
     64  CG1      -12.8430   68.1320   45.0510 C.3    79  VAL79       0.0020
     65  CG2      -12.2900   67.6040   47.4410 C.3    79  VAL79       0.0020
     66  N        -11.0690   63.9080   45.6520 N.am   80  PHE80      -0.1962
     67  CA       -10.0900   62.9220   46.1140 C.3    80  PHE80       0.1771
     68  C        -10.5990   61.8230   47.0450 C.2    80  PHE80       0.2620
     69  O         -9.8030   61.2170   47.7500 O.2    80  PHE80      -0.2715
     70  CB        -8.9290   63.6340   46.8260 C.3    80  PHE80       0.0574
     71  CG        -8.2540   64.6800   45.9900 C.ar   80  PHE80      -0.0200
     72  CD1       -7.4530   64.3210   44.9190 C.ar   80  PHE80      -0.0042
     73  CD2       -8.4560   66.0300   46.2570 C.ar   80  PHE80      -0.0042
     74  CE1       -6.8550   65.2930   44.1160 C.ar   80  PHE80      -0.0003
     75  CE2       -7.8650   67.0130   45.4610 C.ar   80  PHE80      -0.0003
     76  CZ        -7.0650   66.6460   44.3920 C.ar   80  PHE80      -0.0000
     77  N        -11.8990   61.5610   47.0700 N.am   81  GLY81      -0.1954
     78  CA       -12.3760   60.5250   47.9700 C.3    81  GLY81       0.1869
     79  C        -13.1990   59.4360   47.3020 C.2    81  GLY81       0.2309
     80  O        -13.8070   58.6080   47.9820 O.2    81  GLY81      -0.2863
     81  N        -13.1720   71.5050   52.4090 N.3   104  THR104     -0.1203
     82  CA       -12.1320   70.5480   52.0080 C.3   104  THR104      0.1994
     83  C        -10.8300   70.8670   52.7590 C.2   104  THR104      0.2618
     84  O        -10.5970   72.0190   53.1380 O.2   104  THR104     -0.2717
     85  CB       -11.8650   70.6170   50.4800 C.3   104  THR104      0.1784
     86  OG1      -10.7750   69.7550   50.1430 O.3   104  THR104     -0.2211
     87  CG2      -11.5120   72.0470   50.0580 C.3   104  THR104      0.0376
     88  N         -9.9800   69.8630   52.9620 N.am  105  SER105     -0.1951
     89  CA        -8.7370   70.1020   53.6860 C.3   105  SER105      0.1924
     90  C         -7.7900   70.9780   52.8620 C.2   105  SER105      0.2314
     91  O         -6.8530   71.5560   53.4010 O.2   105  SER105     -0.2863
     92  CB        -8.0540   68.7720   54.0910 C.3   105  SER105      0.2116
     93  OG        -7.5300   68.0390   52.9890 O.3   105  SER105     -0.2180
     94  N         -2.2420   66.2240   47.8880 N.3   149  LEU149     -0.1231
     95  CA        -2.8950   65.4190   48.9270 C.3   149  LEU149      0.1693
     96  C         -2.4180   63.9780   48.7920 C.2   149  LEU149      0.2591
     97  O         -2.0130   63.5550   47.7130 O.2   149  LEU149     -0.2718
     98  CB        -4.4230   65.4730   48.8020 C.3   149  LEU149      0.0284
     99  CG        -5.0900   66.8290   49.0630 C.3   149  LEU149      0.0019
    100  CD1       -6.5080   66.6100   49.5480 C.3   149  LEU149      0.0001
    101  CD2       -4.3180   67.5890   50.1420 C.3   149  LEU149      0.0001
    102  N         -2.4550   63.2260   49.8810 N.am  150  MET150     -0.1979
    103  CA        -1.9880   61.8400   49.8590 C.3   150  MET150      0.1605
    104  C         -0.5710   61.7490   49.2980 C.2   150  MET150      0.2287
    105  O         -0.2170   60.7670   48.6330 O.2   150  MET150     -0.2864
    106  CB        -2.9210   60.9640   49.0140 C.3   150  MET150      0.0413
    107  CG        -4.2940   60.7770   49.6290 C.3   150  MET150      0.0598
    108  SD        -5.3240   59.6120   48.7250 S.3   150  MET150     -0.1393
    109  CE        -6.1500   60.7010   47.6210 C.3   150  MET150      0.0692
    110  N          1.2970   70.3760   56.2990 N.3   176  VAL176     -0.1245
    111  CA         0.4520   70.6320   57.4660 C.3   176  VAL176      0.1561
    112  C         -0.2170   69.3200   57.8340 C.2   176  VAL176      0.2260
    113  O         -1.1070   68.8540   57.1290 O.2   176  VAL176     -0.2867
    114  CB        -0.6290   71.6760   57.1810 C.3   176  VAL176      0.0252
    115  CG1       -1.3980   71.9470   58.4690 C.3   176  VAL176      0.0019
    116  CG2       -0.0390   72.9500   56.6180 C.3   176  VAL176      0.0019
    117  N         -2.6430   66.9300   59.9810 N.3   178  ARG178     -0.1231
    118  CA        -3.9140   67.0720   60.6840 C.3   178  ARG178      0.1694
    119  C         -4.3850   68.5080   60.9180 C.2   178  ARG178      0.2591
    120  O         -4.6140   68.9410   62.0540 O.2   178  ARG178     -0.2718
    121  CB        -3.8210   66.3200   62.0020 C.3   178  ARG178      0.0321
    122  CG        -3.5900   64.8160   61.7730 C.3   178  ARG178      0.0489
    123  CD        -3.0840   64.0620   62.9850 C.3   178  ARG178      0.2205
    124  NE        -1.7940   63.4670   62.6480 N.pl3 178  ARG178     -0.0865
    125  CZ        -1.1300   62.6010   63.4030 C.cat 178  ARG178      0.5346
    126  NH1       -1.6350   62.2070   64.5660 N.pl3 178  ARG178      0.1354
    127  NH2        0.0450   62.1360   62.9930 N.pl3 178  ARG178      0.1354
    128  N         -4.5140   69.2380   59.8240 N.am  179  ALA179     -0.1980
    129  CA        -4.9630   70.6140   59.8650 C.3   179  ALA179      0.1597
    130  C         -6.3020   70.7100   60.6180 C.2   179  ALA179      0.2287
    131  O         -7.1330   69.7980   60.5570 O.2   179  ALA179     -0.2864
    132  CB        -5.1060   71.1380   58.4470 C.3   179  ALA179      0.0319
    133  N         -6.9720   70.4420   63.7320 N.3   181  THR181     -0.1218
    134  CA        -7.1080   69.6030   64.9310 C.3   181  THR181      0.1862
    135  C         -6.0510   70.0370   65.9470 C.2   181  THR181      0.2287
    136  O         -5.1780   70.8410   65.6390 O.2   181  THR181     -0.2866
    137  CB        -6.8320   68.1100   64.6360 C.3   181  THR181      0.1770
    138  OG1       -5.4150   67.9140   64.4940 O.3   181  THR181     -0.2211
    139  CG2       -7.5240   67.6650   63.3480 C.3   181  THR181      0.0375
    140  N          1.3830   61.1360   57.5250 N.3   203  PRO203     -0.2103
    141  CA         0.0390   61.4160   57.0170 C.3   203  PRO203      0.1489
    142  C         -0.9610   61.3460   58.1870 C.2   203  PRO203      0.2418
    143  O         -0.6680   60.7520   59.2210 O.2   203  PRO203     -0.2734
    144  CB        -0.1710   60.3010   56.0000 C.3   203  PRO203      0.0282
    145  CG         0.5190   59.1340   56.6760 C.3   203  PRO203      0.0208
    146  CD         1.8000   59.7550   57.2060 C.3   203  PRO203      0.0893
    147  N         -2.1490   61.9550   58.0370 N.am  204  PRO204     -0.2718
    148  CA        -2.5650   62.6830   56.8380 C.3   204  PRO204      0.1535
    149  C         -2.0290   64.1120   56.8640 C.2   204  PRO204      0.2598
    150  O         -2.0950   64.8080   57.8900 O.2   204  PRO204     -0.2715
    151  CB        -4.0830   62.6360   56.9230 C.3   204  PRO204      0.0310
    152  CG        -4.3120   62.8160   58.4030 C.3   204  PRO204      0.0237
    153  CD        -3.2440   61.9030   59.0270 C.3   204  PRO204      0.0939
    154  N         -1.4880   64.5390   55.7300 N.am  205  ALA205     -0.1964
    155  CA        -0.9710   65.8890   55.6280 C.3   205  ALA205      0.1728
    156  C         -1.2790   66.5700   54.3170 C.2   205  ALA205      0.2616
    157  O         -1.3280   65.9680   53.2550 O.2   205  ALA205     -0.2715
    158  CB         0.5600   65.9220   55.8950 C.3   205  ALA205      0.0334
    159  N         -1.4560   67.8760   54.4530 N.am  206  LEU206     -0.1977
    160  CA        -1.7230   68.8250   53.4140 C.3   206  LEU206      0.1596
    161  C         -0.3180   69.2770   52.9940 C.2   206  LEU206      0.2287
    162  O          0.4930   69.6660   53.8190 O.2   206  LEU206     -0.2864
    163  CB        -2.4580   69.9730   54.0760 C.3   206  LEU206      0.0297
    164  CG        -3.0630   71.1570   53.3680 C.3   206  LEU206      0.0022
    165  CD1       -4.2000   70.6100   52.5530 C.3   206  LEU206      0.0001
    166  CD2       -3.5690   72.2230   54.3690 C.3   206  LEU206      0.0001
@<TRIPOS>BOND
     1    74    76   ar
     2    74    72   ar
     3    76    75   ar
     4    72    71   ar
     5    64    63    1
     6    75    73   ar
     7    66    67    1
     8    66    61   am
     9    60    63    1
    10    60    59    1
    11    60    61    1
    12    71    73   ar
    13    71    70    1
    14    63    65    1
    15    67    70    1
    16    67    68    1
    17    61    62    2
    18    68    77   am
    19    68    69    2
    20    77    78    1
    21    79    78    1
    22    79    80    2
    23   109   108    1
    24    55    54    2
    25    97    96    2
    26    94    95    1
    27    50    49   ar
    28    54    53    1
    29   105   104    2
    30   108   107    1
    31    96    95    1
    32    96   102   am
    33    98    95    1
    34    98    99    1
    35    49    51   ar
    36    49    48    1
    37   106   107    1
    38   106   103    1
    39    99   100    1
    40    99   101    1
    41   104   103    1
    42    53    56    1
    43    53    52    1
    44    57    56    1
    45    57    58    1
    46   103   102    1
    47    47    46    2
    48    48    45    1
    49    87    85    1
    50    34    35    1
    51    34    33    1
    52    86    85    1
    53    52    46   am
    54    52    58    1
    55    46    45    1
    56    85    82    1
    57    33    32    1
    58    45    44    1
    59    44    42   am
    60    82    81    1
    61    82    83    1
    62    32    31    1
    63   165   164    1
    64    83    88   am
    65    83    84    2
    66    90    91    2
    67    90    89    1
    68    31    28    1
    69    88    89    1
    70    93    92    1
    71   161   160    1
    72   161   162    2
    73    42    43    2
    74    42    41    1
    75    39    38    2
    76   157   156    2
    77   164   163    1
    78   164   166    1
    79   160   163    1
    80   160   159    1
    81    89    92    1
    82    41    40    1
    83    18    16    1
    84   156   159   am
    85   156   155    1
    86    28    29    1
    87    28    27    1
    88    38    40   am
    89    38    37    1
    90    17    16    1
    91    29    30    2
    92    29    36   am
    93    16    15    2
    94    36    37    1
    95    25    24    1
    96   155   154    1
    97   155   158    1
    98    15    14    1
    99   154   149   am
   100   144   145    1
   101   144   141    1
   102   110   111    1
   103    11    10    2
   104    14    13    1
   105    12    13    1
   106    12     9    1
   107     8     9    1
   108   116   114    1
   109   145   146    1
   110    24    23    1
   111    24    26    1
   112   148   149    1
   113   148   151    1
   114   148   147    1
   115   149   150    2
   116   151   152    1
   117   141   140    1
   118   141   142    1
   119   113   112    2
   120   114   111    1
   121   114   115    1
   122    23    20    1
   123   146   140    1
   124     9    10    1
   125    10    19   am
   126   111   112    1
   127     1     7    1
   128     1     2    1
   129     7     6    1
   130     5     2    1
   131     5     6    1
   132     2     3    1
   133   147   142   am
   134   147   153    1
   135   142   143    2
   136    19    20    1
   137   152   153    1
   138   132   129    1
   139    20    21    1
   140    22    21    2
   141     3     4    2
   142   128   129    1
   143   128   119   am
   144   129   130    1
   145   117   118    1
   146   131   130    2
   147   118   119    1
   148   118   121    1
   149   119   120    2
   150   122   121    1
   151   122   123    1
   152   124   123    1
   153   124   125    2
   154   127   125    1
   155   139   137    1
   156   125   126    1
   157   133   134    1
   158   138   137    1
   159   137   134    1
   160   134   135    1
   161   136   135    2
