@<TRIPOS>MOLECULE
tmp/1v9hA00.pdb
 123 121 0 0 0
SMALL
GASTEIGER

@<TRIPOS>ATOM
      1  N         19.5240  -39.9760   23.5580 N.3    12  GLN12      -0.1245
      2  CA        18.3570  -40.4710   24.2750 C.3    12  GLN12       0.1566
      3  C         18.6110  -41.8070   24.9620 C.2    12  GLN12       0.2260
      4  O         19.4440  -42.5880   24.5130 O.2    12  GLN12      -0.2867
      5  CB        17.1740  -40.6080   23.3040 C.3    12  GLN12       0.0367
      6  CG        17.4080  -41.5540   22.1240 C.3    12  GLN12       0.0905
      7  CD        16.2000  -41.6300   21.1940 C.2    12  GLN12       0.2608
      8  OE1       15.1480  -41.0780   21.4950 O.2    12  GLN12      -0.2717
      9  NE2       16.3490  -42.3150   20.0640 N.am   12  GLN12      -0.0878
     10  N         12.6140  -43.8050   26.7770 N.3    17  VAL17      -0.1245
     11  CA        11.8760  -43.3590   25.6040 C.3    17  VAL17       0.1561
     12  C         10.8140  -44.3870   25.2290 C.2    17  VAL17       0.2260
     13  O          9.6740  -44.0410   24.9110 O.2    17  VAL17      -0.2867
     14  CB        12.8210  -43.1530   24.3970 C.3    17  VAL17       0.0252
     15  CG1       12.0120  -42.8800   23.1340 C.3    17  VAL17       0.0019
     16  CG2       13.7730  -41.9930   24.6820 C.3    17  VAL17       0.0019
     17  N         19.7420  -38.9820   19.1630 N.3    37  HIS37      -0.1241
     18  CA        18.3920  -38.5840   18.7970 C.3    37  HIS37       0.1621
     19  C         18.6310  -37.6930   17.5810 C.2    37  HIS37       0.2264
     20  O         18.0850  -37.9290   16.5060 O.2    37  HIS37      -0.2867
     21  CB        17.7050  -37.7980   19.9130 C.3    37  HIS37       0.0745
     22  CG        16.3170  -37.3510   19.5670 C.ar   37  HIS37       0.0817
     23  ND1       15.4150  -36.9190   20.5150 N.ar   37  HIS37      -0.2268
     24  CD2       15.6810  -37.2550   18.3740 C.ar   37  HIS37       0.1154
     25  CE1       14.2850  -36.5780   19.9230 C.ar   37  HIS37       0.1986
     26  NE2       14.4190  -36.7710   18.6240 N.ar   37  HIS37      -0.2212
     27  N         20.7730  -30.7260   16.7810 N.3    40  TRP40      -0.1241
     28  CA        19.8740  -29.5930   16.5720 C.3    40  TRP40       0.1605
     29  C         20.4900  -28.1970   16.5790 C.2    40  TRP40       0.2264
     30  O         20.9160  -27.7110   17.6240 O.2    40  TRP40      -0.2867
     31  CB        18.7670  -29.6090   17.6390 C.3    40  TRP40       0.0550
     32  CG        18.0410  -30.9200   17.8090 C.ar   40  TRP40       0.0003
     33  CD1       18.0350  -31.9760   16.9470 C.ar   40  TRP40       0.0946
     34  CD2       17.1570  -31.2730   18.8810 C.ar   40  TRP40       0.0152
     35  NE1       17.1980  -32.9640   17.4110 N.ar   40  TRP40      -0.2442
     36  CE2       16.6460  -32.5580   18.5970 C.ar   40  TRP40       0.0810
     37  CE3       16.7430  -30.6240   20.0550 C.ar   40  TRP40       0.0012
     38  CZ2       15.7400  -33.2120   19.4450 C.ar   40  TRP40       0.0191
     39  CZ3       15.8410  -31.2730   20.8980 C.ar   40  TRP40       0.0001
     40  CH2       15.3510  -32.5540   20.5870 C.ar   40  TRP40       0.0015
     41  N         16.4010  -46.2150   15.2510 N.3    74  ASN74      -0.1225
     42  CA        15.0870  -45.6730   15.5370 C.3    74  ASN74       0.1785
     43  C         14.6410  -46.6280   16.6490 C.2    74  ASN74       0.2597
     44  O         14.4030  -47.8100   16.3870 O.2    74  ASN74      -0.2718
     45  CB        14.1660  -45.8180   14.3260 C.3    74  ASN74       0.1169
     46  CG        12.7900  -45.2380   14.5740 C.2    74  ASN74       0.2627
     47  OD1       12.3340  -45.1670   15.7120 O.2    74  ASN74      -0.2716
     48  ND2       12.1150  -44.8330   13.5060 N.am   74  ASN74      -0.0877
     49  N         14.5560  -46.1400   17.8850 N.am   75  VAL75      -0.1966
     50  CA        14.1790  -47.0110   18.9960 C.3    75  VAL75       0.1727
     51  C         12.6840  -47.2930   19.0760 C.2    75  VAL75       0.2616
     52  O         12.2670  -48.2940   19.6610 O.2    75  VAL75      -0.2715
     53  CB        14.6380  -46.4300   20.3660 C.3    75  VAL75       0.0290
     54  CG1       16.1320  -46.1300   20.3380 C.3    75  VAL75       0.0023
     55  CG2       13.8430  -45.1830   20.7050 C.3    75  VAL75       0.0023
     56  N         11.8830  -46.4170   18.4800 N.am   76  LEU76      -0.1963
     57  CA        10.4320  -46.5600   18.5150 C.3    76  LEU76       0.1728
     58  C          9.8600  -47.4700   17.4360 C.2    76  LEU76       0.2616
     59  O          8.9140  -48.2140   17.6830 O.2    76  LEU76      -0.2715
     60  CB         9.7730  -45.1780   18.4160 C.3    76  LEU76       0.0311
     61  CG        10.1270  -44.1890   19.5290 C.3    76  LEU76       0.0022
     62  CD1        9.3910  -42.8660   19.3120 C.3    76  LEU76       0.0001
     63  CD2        9.7500  -44.7910   20.8720 C.3    76  LEU76       0.0001
     64  N         10.4360  -47.4040   16.2420 N.am   77  ARG77      -0.1977
     65  CA         9.9730  -48.2040   15.1150 C.3    77  ARG77       0.1597
     66  C         11.1570  -48.8090   14.3760 C.2    77  ARG77       0.2287
     67  O         12.2650  -48.2780   14.4240 O.2    77  ARG77      -0.2864
     68  CB         9.1740  -47.3260   14.1480 C.3    77  ARG77       0.0334
     69  CG         7.8590  -46.8130   14.7020 C.3    77  ARG77       0.0492
     70  CD         7.2620  -45.7530   13.7890 C.3    77  ARG77       0.2205
     71  NE         7.8230  -44.4270   14.0420 N.pl3  77  ARG77      -0.0865
     72  CZ         7.5440  -43.6960   15.1170 C.cat  77  ARG77       0.5346
     73  NH1        6.7100  -44.1620   16.0380 N.pl3  77  ARG77       0.1354
     74  NH2        8.0890  -42.4970   15.2710 N.pl3  77  ARG77       0.1354
     75  N         13.8000  -42.1710   10.5070 N.3    83  PHE83      -0.1241
     76  CA        14.2230  -41.3510   11.6380 C.3    83  PHE83       0.1605
     77  C         15.3310  -40.3850   11.2100 C.2    83  PHE83       0.2264
     78  O         15.2710  -39.1930   11.5120 O.2    83  PHE83      -0.2867
     79  CB        14.6890  -42.2700   12.7770 C.3    83  PHE83       0.0534
     80  CG        15.0200  -41.5520   14.0620 C.ar   83  PHE83      -0.0203
     81  CD1       14.3540  -40.3840   14.4230 C.ar   83  PHE83      -0.0042
     82  CD2       15.9680  -42.0780   14.9360 C.ar   83  PHE83      -0.0042
     83  CE1       14.6280  -39.7510   15.6410 C.ar   83  PHE83      -0.0003
     84  CE2       16.2480  -41.4550   16.1550 C.ar   83  PHE83      -0.0003
     85  CZ        15.5780  -40.2910   16.5080 C.ar   83  PHE83      -0.0000
     86  N         13.8990  -37.6700    8.9930 N.3    86  HIS86      -0.1226
     87  CA        13.1620  -36.6730    9.7540 C.3    86  HIS86       0.1752
     88  C         14.0910  -35.6910   10.4680 C.2    86  HIS86       0.2595
     89  O         13.8630  -34.4750   10.4470 O.2    86  HIS86      -0.2718
     90  CB        12.2510  -37.3490   10.7800 C.3    86  HIS86       0.0759
     91  CG        11.5420  -36.3840   11.6780 C.ar   86  HIS86       0.0818
     92  ND1       11.9790  -36.0930   12.9520 N.ar   86  HIS86      -0.2268
     93  CD2       10.4510  -35.6090   11.4680 C.ar   86  HIS86       0.1154
     94  CE1       11.1900  -35.1790   13.4880 C.ar   86  HIS86       0.1986
     95  NE2       10.2550  -34.8680   12.6080 N.ar   86  HIS86      -0.2212
     96  N         15.1380  -36.2130   11.0990 N.am   87  GLU87      -0.1979
     97  CA        16.0640  -35.3540   11.8260 C.3    87  GLU87       0.1602
     98  C         16.8060  -34.4150   10.8820 C.2    87  GLU87       0.2287
     99  O         17.0790  -33.2640   11.2290 O.2    87  GLU87      -0.2864
    100  CB        17.0470  -36.1980   12.6430 C.3    87  GLU87       0.0415
    101  CG        16.3960  -36.9020   13.8370 C.3    87  GLU87       0.1163
    102  CD        15.8390  -35.9220   14.8550 C.2    87  GLU87       0.3649
    103  OE1       16.6250  -35.1190   15.3960 O.co2  87  GLU87      -0.2457
    104  OE2       14.6160  -35.9480   15.1150 O.co2  87  GLU87      -0.2457
    105  N         14.0730  -31.7370    9.5910 N.3    90  LYS90      -0.1231
    106  CA        13.6670  -30.8270   10.6470 C.3    90  LYS90       0.1693
    107  C         14.8060  -30.0260   11.2760 C.2    90  LYS90       0.2592
    108  O         14.6380  -28.8490   11.5940 O.2    90  LYS90      -0.2718
    109  CB        12.9280  -31.6060   11.7410 C.3    90  LYS90       0.0285
    110  CG        12.3870  -30.7270   12.8610 C.3    90  LYS90       0.0035
    111  CD        11.4770  -31.5110   13.7950 C.3    90  LYS90       0.0206
    112  CE        10.9390  -30.6170   14.9100 C.3    90  LYS90       0.1093
    113  NZ         9.9650  -31.3500   15.7630 N.3    90  LYS90      -0.1314
    114  N         15.9670  -30.6510   11.4410 N.am   91  HIS91      -0.1976
    115  CA        17.0930  -29.9920   12.0960 C.3    91  HIS91       0.1656
    116  C         18.3280  -29.7290   11.2300 C.2    91  HIS91       0.2291
    117  O         18.8210  -28.6000   11.1690 O.2    91  HIS91      -0.2864
    118  CB        17.5010  -30.8180   13.3250 C.3    91  HIS91       0.0771
    119  CG        16.3960  -31.0150   14.3190 C.ar   91  HIS91       0.0820
    120  ND1       15.9630  -30.0130   15.1640 N.ar   91  HIS91      -0.2267
    121  CD2       15.6400  -32.1010   14.6090 C.ar   91  HIS91       0.1154
    122  CE1       14.9910  -30.4740   15.9320 C.ar   91  HIS91       0.1986
    123  NE2       14.7750  -31.7380   15.6150 N.ar   91  HIS91      -0.2212
@<TRIPOS>BOND
     1    86    87    1
     2   105   106    1
     3    87    88    1
     4    87    90    1
     5    89    88    2
     6    88    96   am
     7    75    76    1
     8   106   107    1
     9   106   109    1
    10    90    91    1
    11    98    99    2
    12    98    97    1
    13    96    97    1
    14   117   116    2
    15    77    78    2
    16    77    76    1
    17   116   115    1
    18   107   114   am
    19   107   108    2
    20   114   115    1
    21    93    91   ar
    22    93    95   ar
    23    76    79    1
    24    91    92   ar
    25   109   110    1
    26    97   100    1
    27   115   118    1
    28    95    94   ar
    29   100   101    1
    30    79    80    1
    31   110   111    1
    32    92    94   ar
    33   118   119    1
    34    48    46   am
    35    70    71    1
    36    70    69    1
    37   111   112    1
    38   101   102    1
    39    71    72    2
    40    80    81   ar
    41    80    82   ar
    42    68    69    1
    43    68    65    1
    44   119   121   ar
    45   119   120   ar
    46    45    46    1
    47    45    42    1
    48    66    67    2
    49    66    65    1
    50    81    83   ar
    51    46    47    2
    52   121   123   ar
    53   102   104   ar
    54   102   103   ar
    55   112   113    1
    56    82    84   ar
    57    65    64    1
    58    72    74    1
    59    72    73    1
    60   120   122   ar
    61    41    42    1
    62    42    43    1
    63   123   122   ar
    64    83    85   ar
    65    84    85   ar
    66    64    58   am
    67    44    43    2
    68    20    19    2
    69    28    29    1
    70    28    27    1
    71    28    31    1
    72    29    30    2
    73    43    49   am
    74    33    35   ar
    75    33    32   ar
    76    35    36   ar
    77    58    59    2
    78    58    57    1
    79    19    18    1
    80    31    32    1
    81    32    34   ar
    82    49    50    1
    83    24    26   ar
    84    24    22   ar
    85    60    57    1
    86    60    61    1
    87    56    57    1
    88    56    51   am
    89    36    34   ar
    90    36    38   ar
    91    26    25   ar
    92    18    17    1
    93    18    21    1
    94    34    37   ar
    95    50    51    1
    96    50    53    1
    97    51    52    2
    98    62    61    1
    99    38    40   ar
   100    61    63    1
   101    22    21    1
   102    22    23   ar
   103    25    23   ar
   104    37    39   ar
   105     9     7   am
   106    54    53    1
   107    53    55    1
   108    40    39   ar
   109     7     8    2
   110     7     6    1
   111     6     5    1
   112    15    14    1
   113     5     2    1
   114     1     2    1
   115     2     3    1
   116    14    16    1
   117    14    11    1
   118     4     3    2
   119    13    12    2
   120    12    11    1
   121    11    10    1
