@<TRIPOS>MOLECULE
tmp/1v9lD00.pdb
 178 169 0 0 0
SMALL
GASTEIGER

@<TRIPOS>ATOM
      1  N         76.5680   61.2180   77.1450 N.3    90  LYS90      -0.1245
      2  CA        77.3810   61.0350   75.9530 C.3    90  LYS90       0.1561
      3  C         77.5790   62.3300   75.1910 C.2    90  LYS90       0.2260
      4  O         78.6770   62.6010   74.6960 O.2    90  LYS90      -0.2867
      5  CB        76.7440   59.9910   75.0510 C.3    90  LYS90       0.0271
      6  CG        77.5180   59.6620   73.7950 C.3    90  LYS90       0.0035
      7  CD        76.8860   58.4490   73.1140 C.3    90  LYS90       0.0206
      8  CE        77.6060   58.0480   71.8240 C.3    90  LYS90       0.1093
      9  NZ        77.1680   56.6960   71.3260 N.3    90  LYS90      -0.1314
     10  N         81.4450   57.3950   62.5770 N.3   186  THR186     -0.1218
     11  CA        81.7200   56.6100   63.7860 C.3   186  THR186      0.1862
     12  C         83.0690   55.8970   63.7550 C.2   186  THR186      0.2287
     13  O         83.8630   55.9770   64.7040 O.2   186  THR186     -0.2866
     14  CB        80.6330   55.5630   63.9820 C.3   186  THR186      0.1770
     15  OG1       79.3610   56.2040   63.9880 O.3   186  THR186     -0.2211
     16  CG2       80.8400   54.8190   65.2850 C.3   186  THR186      0.0375
     17  N         86.6880   43.2440   65.4500 N.3   213  GLN213     -0.1231
     18  CA        85.5840   42.2850   65.4520 C.3   213  GLN213      0.1698
     19  C         84.3370   42.9150   64.8190 C.2   213  GLN213      0.2593
     20  O         83.8170   43.9110   65.3220 O.2   213  GLN213     -0.2718
     21  CB        85.2370   41.8300   66.8800 C.3   213  GLN213      0.0381
     22  CG        83.9230   41.0480   66.9150 C.3   213  GLN213      0.0905
     23  CD        83.6920   40.3360   68.2190 C.2   213  GLN213      0.2608
     24  OE1       83.7020   40.9490   69.2800 O.2   213  GLN213     -0.2717
     25  NE2       83.4440   39.0290   68.1450 N.am  213  GLN213     -0.0878
     26  N         83.8580   42.3250   63.7250 N.am  214  GLY214     -0.1942
     27  CA        82.6880   42.8510   63.0420 C.3   214  GLY214      0.2014
     28  C         83.0790   43.7260   61.8670 C.2   214  GLY214      0.2639
     29  O         83.9900   44.5440   61.9750 O.2   214  GLY214     -0.2714
     30  N         82.4090   43.5490   60.7320 N.am  215  MET215     -0.1963
     31  CA        82.7080   44.3520   59.5450 C.3   215  MET215      0.1736
     32  C         81.4430   45.0500   59.0660 C.2   215  MET215      0.2617
     33  O         81.2140   45.2140   57.8620 O.2   215  MET215     -0.2715
     34  CB        83.2930   43.4880   58.4290 C.3   215  MET215      0.0427
     35  CG        84.6340   42.8970   58.7800 C.3   215  MET215      0.0599
     36  SD        85.7840   44.1830   59.2700 S.3   215  MET215     -0.1393
     37  CE        86.1420   44.9420   57.6510 C.3   215  MET215      0.0692
     38  N         80.6210   45.4530   60.0300 N.am  216  GLY216     -0.1940
     39  CA        79.3990   46.1510   59.7090 C.3   216  GLY216      0.2014
     40  C         79.7360   47.5750   59.3260 C.2   216  GLY216      0.2639
     41  O         80.5020   47.8050   58.3930 O.2   216  GLY216     -0.2714
     42  N         79.1810   48.5380   60.0500 N.am  217  ASN217     -0.1958
     43  CA        79.4480   49.9340   59.7520 C.3   217  ASN217      0.1819
     44  C         80.6240   50.4650   60.5560 C.2   217  ASN217      0.2621
     45  O         81.5110   51.1240   60.0170 O.2   217  ASN217     -0.2715
     46  CB        78.2120   50.7780   60.0380 C.3   217  ASN217      0.1195
     47  CG        78.4100   52.2460   59.6800 C.2   217  ASN217      0.2630
     48  OD1       78.0400   53.1380   60.4520 O.2   217  ASN217     -0.2716
     49  ND2       78.9860   52.5050   58.5030 N.am  217  ASN217     -0.0877
     50  N         80.6310   50.1770   61.8500 N.am  218  VAL218     -0.1963
     51  CA        81.7020   50.6490   62.7060 C.3   218  VAL218      0.1727
     52  C         83.0450   49.9890   62.3780 C.2   218  VAL218      0.2616
     53  O         83.9790   50.6570   61.9260 O.2   218  VAL218     -0.2715
     54  CB        81.3750   50.4010   64.1860 C.3   218  VAL218      0.0290
     55  CG1       82.3630   51.1380   65.0580 C.3   218  VAL218      0.0023
     56  CG2       79.9720   50.8530   64.4860 C.3   218  VAL218      0.0023
     57  N         83.1350   48.6800   62.5960 N.am  219  GLY219     -0.1955
     58  CA        84.3760   47.9800   62.3170 C.3   219  GLY219      0.1869
     59  C         84.8810   48.1890   60.9010 C.2   219  GLY219      0.2309
     60  O         86.0830   48.3550   60.6690 O.2   219  GLY219     -0.2863
     61  N         86.8530   39.7020   62.2540 N.3   237  SER237     -0.1202
     62  CA        85.8540   38.6440   62.3220 C.3   237  SER237      0.2020
     63  C         84.4330   39.0580   61.9430 C.2   237  SER237      0.2619
     64  O         84.1690   40.2130   61.6170 O.2   237  SER237     -0.2717
     65  CB        85.8510   37.9950   63.7210 C.3   237  SER237      0.2103
     66  OG        85.6730   38.9330   64.7720 O.3   237  SER237     -0.2182
     67  N         83.5290   38.0830   61.9530 N.am  238  ASP238     -0.1959
     68  CA        82.1160   38.2970   61.6280 C.3   238  ASP238      0.1840
     69  C         81.3920   36.9540   61.7540 C.2   238  ASP238      0.2621
     70  O         82.0120   35.9260   62.0500 O.2   238  ASP238     -0.2715
     71  CB        81.9590   38.8450   60.2040 C.3   238  ASP238      0.1450
     72  CG        80.6250   39.5460   59.9870 C.2   238  ASP238      0.3671
     73  OD1       80.4650   40.6850   60.4580 O.co2 238  ASP238     -0.2456
     74  OD2       79.7300   38.9570   59.3440 O.co2 238  ASP238     -0.2456
     75  N         80.0830   36.9630   61.5360 N.am  239  ILE239     -0.1977
     76  CA        79.2980   35.7430   61.6310 C.3   239  ILE239      0.1596
     77  C         79.9470   34.5670   60.8850 C.2   239  ILE239      0.2287
     78  O         79.8810   33.4260   61.3430 O.2   239  ILE239     -0.2864
     79  CB        77.8550   35.9900   61.1150 C.3   239  ILE239      0.0276
     80  CG1       77.0980   36.8330   62.1440 C.3   239  ILE239      0.0022
     81  CG2       77.1200   34.6720   60.8630 C.3   239  ILE239      0.0022
     82  CD1       75.6480   37.0900   61.7940 C.3   239  ILE239      0.0001
     83  N         78.6950   42.5370   55.7850 N.3   262  GLY262     -0.1210
     84  CA        79.7880   42.1510   56.6660 C.3   262  GLY262      0.1940
     85  C         80.5120   40.8680   56.3050 C.2   262  GLY262      0.2453
     86  O         81.7220   40.8790   56.0510 O.2   262  GLY262     -0.2732
     87  N         79.7850   39.7380   56.2840 N.am  263  PRO263     -0.2728
     88  CA        80.3120   38.4110   55.9620 C.3   263  PRO263      0.1401
     89  C         81.0130   38.3340   54.6110 C.2   263  PRO263      0.2269
     90  O         82.0520   37.6750   54.4850 O.2   263  PRO263     -0.2865
     91  CB        79.0680   37.5280   56.0200 C.3   263  PRO263      0.0296
     92  CG        77.9960   38.4490   55.5680 C.3   263  PRO263      0.0237
     93  CD        78.3140   39.6860   56.3710 C.3   263  PRO263      0.0939
     94  N         84.1620   32.7130   64.6850 N.3   281  PRO281     -0.2102
     95  CA        84.2350   34.1360   65.0280 C.3   281  PRO281      0.1504
     96  C         84.7250   34.4520   66.4460 C.2   281  PRO281      0.2575
     97  O         84.6190   35.5950   66.9000 O.2   281  PRO281     -0.2718
     98  CB        82.8090   34.6160   64.7640 C.3   281  PRO281      0.0282
     99  CG        81.9950   33.4290   65.1590 C.3   281  PRO281      0.0208
    100  CD        82.7620   32.2630   64.5770 C.3   281  PRO281      0.0893
    101  N         85.2640   33.4510   67.1370 N.am  282  ASP282     -0.1974
    102  CA        85.7640   33.6630   68.4900 C.3   282  ASP282      0.1708
    103  C         87.2830   33.6460   68.5510 C.2   282  ASP282      0.2293
    104  O         87.8760   33.8540   69.6130 O.2   282  ASP282     -0.2864
    105  CB        85.1860   32.6120   69.4330 C.3   282  ASP282      0.1436
    106  CG        83.7080   32.8080   69.6780 C.2   282  ASP282      0.3671
    107  OD1       83.3260   33.9140   70.1170 O.co2 282  ASP282     -0.2456
    108  OD2       82.9280   31.8590   69.4470 O.co2 282  ASP282     -0.2456
    109  N         83.5070   45.6160   67.6710 N.3   295  ALA295     -0.1231
    110  CA        82.5910   46.5060   66.9830 C.3   295  ALA295      0.1694
    111  C         81.3340   45.8220   66.4650 C.2   295  ALA295      0.2592
    112  O         80.6860   46.3070   65.5320 O.2   295  ALA295     -0.2718
    113  CB        83.3260   47.1730   65.8410 C.3   295  ALA295      0.0304
    114  N         80.9850   44.7000   67.0790 N.am  296  ALA296     -0.1966
    115  CA        79.8140   43.9590   66.6460 C.3   296  ALA296      0.1728
    116  C         78.6130   44.1600   67.5640 C.2   296  ALA296      0.2616
    117  O         77.6640   44.8660   67.2090 O.2   296  ALA296     -0.2715
    118  CB        80.1550   42.4970   66.5500 C.3   296  ALA296      0.0334
    119  N         78.6520   43.5210   68.7330 N.am  297  ILE297     -0.1963
    120  CA        77.5690   43.6170   69.7120 C.3   297  ILE297      0.1727
    121  C         78.0310   43.6910   71.1620 C.2   297  ILE297      0.2616
    122  O         79.2290   43.6500   71.4510 O.2   297  ILE297     -0.2715
    123  CB        76.5720   42.4490   69.5910 C.3   297  ILE297      0.0290
    124  CG1       77.3180   41.1120   69.5210 C.3   297  ILE297      0.0022
    125  CG2       75.7070   42.6420   68.3810 C.3   297  ILE297      0.0023
    126  CD1       76.3920   39.9040   69.3290 C.3   297  ILE297      0.0001
    127  N         77.0530   43.8030   72.0620 N.am  298  GLU298     -0.1977
    128  CA        77.3030   43.9010   73.4980 C.3   298  GLU298      0.1602
    129  C         77.5630   42.5520   74.1370 C.2   298  GLU298      0.2287
    130  O         77.2850   41.5110   73.5500 O.2   298  GLU298     -0.2864
    131  CB        76.1240   44.5700   74.2140 C.3   298  GLU298      0.0415
    132  CG        75.0390   45.1080   73.3060 C.3   298  GLU298      0.1163
    133  CD        74.2710   43.9870   72.6430 C.2   298  GLU298      0.3649
    134  OE1       74.3040   43.8990   71.3970 O.co2 298  GLU298     -0.2457
    135  OE2       73.6380   43.1910   73.3760 O.co2 298  GLU298     -0.2457
    136  N         80.3870   41.0400   74.7300 N.3   300  VAL300     -0.1245
    137  CA        81.3190   40.2500   73.9580 C.3   300  VAL300      0.1561
    138  C         82.5030   39.7980   74.8110 C.2   300  VAL300      0.2260
    139  O         83.0540   38.7190   74.5960 O.2   300  VAL300     -0.2867
    140  CB        81.7980   41.0300   72.7400 C.3   300  VAL300      0.0252
    141  CG1       83.2750   41.3490   72.8530 C.3   300  VAL300      0.0019
    142  CG2       81.5010   40.2270   71.5010 C.3   300  VAL300      0.0019
    143  N         84.1820   49.8450   70.1190 N.3   317  GLY317     -0.1210
    144  CA        83.5640   50.4720   68.9760 C.3   317  GLY317      0.1956
    145  C         82.0770   50.1790   69.0180 C.2   317  GLY317      0.2612
    146  O         81.2800   50.8480   68.3640 O.2   317  GLY317     -0.2717
    147  N         81.6960   49.1690   69.7940 N.am  318  ALA318     -0.1965
    148  CA        80.2900   48.8040   69.9190 C.3   318  ALA318      0.1728
    149  C         79.7650   49.2960   71.2550 C.2   318  ALA318      0.2616
    150  O         80.5170   49.8280   72.0690 O.2   318  ALA318     -0.2715
    151  CB        80.1240   47.3020   69.8240 C.3   318  ALA318      0.0334
    152  N         78.4710   49.1120   71.4790 N.am  319  ASN319     -0.1972
    153  CA        77.8660   49.5400   72.7220 C.3   319  ASN319      0.1688
    154  C         77.8820   48.4690   73.7970 C.2   319  ASN319      0.2292
    155  O         77.2050   47.4490   73.7040 O.2   319  ASN319     -0.2864
    156  CB        76.4330   50.0210   72.4910 C.3   319  ASN319      0.1181
    157  CG        76.3710   51.4820   72.0580 C.2   319  ASN319      0.2629
    158  OD1       77.0870   52.3340   72.5900 O.2   319  ASN319     -0.2716
    159  ND2       75.5020   51.7780   71.0950 N.am  319  ASN319     -0.0877
    160  N         83.1080   55.6390   70.5350 N.3   344  ASN344     -0.1240
    161  CA        82.1730   55.6370   69.4200 C.3   344  ASN344      0.1653
    162  C         81.2810   56.8730   69.3010 C.2   344  ASN344      0.2266
    163  O         80.2900   56.8500   68.5770 O.2   344  ASN344     -0.2867
    164  CB        81.3110   54.3540   69.4150 C.3   344  ASN344      0.1155
    165  CG        80.3540   54.2650   70.5890 C.2   344  ASN344      0.2627
    166  OD1       79.7710   55.2600   71.0160 O.2   344  ASN344     -0.2716
    167  ND2       80.1680   53.0470   71.1030 N.am  344  ASN344     -0.0877
    168  N         79.7690   59.2750   66.0020 N.3   347  GLY347     -0.1210
    169  CA        78.4640   59.4010   65.3640 C.3   347  GLY347      0.1956
    170  C         77.6540   60.6180   65.7800 C.2   347  GLY347      0.2611
    171  O         77.0890   61.3200   64.9500 O.2   347  GLY347     -0.2717
    172  N         77.5970   60.8590   67.0780 N.am  348  VAL348     -0.1979
    173  CA        76.8950   61.9990   67.6190 C.3   348  VAL348      0.1595
    174  C         77.6010   63.2800   67.1310 C.2   348  VAL348      0.2287
    175  O         76.9510   64.2280   66.7020 O.2   348  VAL348     -0.2864
    176  CB        76.9090   61.9270   69.1640 C.3   348  VAL348      0.0276
    177  CG1       76.1020   63.0580   69.7570 C.3   348  VAL348      0.0022
    178  CG2       76.3380   60.6030   69.6200 C.3   348  VAL348      0.0022
@<TRIPOS>BOND
     1    90    89    2
     2    89    88    1
     3    92    91    1
     4    92    93    1
     5    83    84    1
     6    88    91    1
     7    88    87    1
     8    86    85    2
     9    87    85   am
    10    87    93    1
    11    85    84    1
    12    37    36    1
    13    33    32    2
    14    41    40    2
    15    34    35    1
    16    34    31    1
    17    49    47   am
    18    35    36    1
    19    32    31    1
    20    32    38   am
    21    40    39    1
    22    40    42   am
    23    74    72   ar
    24    31    30    1
    25    47    46    1
    26    47    48    2
    27    39    38    1
    28    43    46    1
    29    43    42    1
    30    43    44    1
    31    72    71    1
    32    72    73   ar
    33    45    44    2
    34    71    68    1
    35    44    50   am
    36    60    59    2
    37    30    28   am
    38    81    79    1
    39    77    78    2
    40    77    76    1
    41    59    58    1
    42    79    76    1
    43    79    80    1
    44    75    76    1
    45    75    69   am
    46    64    63    2
    47    68    69    1
    48    68    67    1
    49    69    70    2
    50    82    80    1
    51    50    51    1
    52    28    29    2
    53    28    27    1
    54    53    52    2
    55    63    67   am
    56    63    62    1
    57    61    62    1
    58    58    57    1
    59    62    65    1
    60    52    57   am
    61    52    51    1
    62    10    11    1
    63    51    54    1
    64    27    26    1
    65    65    66    1
    66    26    19   am
    67    12    11    1
    68    12    13    2
    69    11    14    1
    70    14    15    1
    71    14    16    1
    72    54    56    1
    73    54    55    1
    74   100    94    1
    75   100    99    1
    76    94    95    1
    77    98    95    1
    78    98    99    1
    79    19    20    2
    80    19    18    1
    81   171   170    2
    82    95    96    1
    83   169   170    1
    84   169   168    1
    85    17    18    1
    86    18    21    1
    87   112   111    2
    88   170   172   am
    89   113   110    1
    90    96    97    2
    91    96   101   am
    92   111   110    1
    93   111   114   am
    94   118   115    1
    95   115   114    1
    96   115   116    1
    97   175   174    2
    98    21    22    1
    99    22    23    1
   100   110   109    1
   101   172   173    1
   102   174   173    1
   103   101   102    1
   104   117   116    2
   105   116   119   am
   106   173   176    1
   107    25    23   am
   108    23    24    2
   109   146   145    2
   110   125   123    1
   111   102   103    1
   112   102   105    1
   113   103   104    2
   114   163   162    2
   115   119   120    1
   116   144   145    1
   117   144   143    1
   118   145   147   am
   119   176   178    1
   120   176   177    1
   121   162   161    1
   122   126   124    1
   123   164   161    1
   124   164   165    1
   125   161   160    1
   126   105   106    1
   127   108   106   ar
   128   124   123    1
   129   123   120    1
   130   106   107   ar
   131   120   121    1
   132   147   148    1
   133   151   148    1
   134   148   149    1
   135   165   166    2
   136   165   167   am
   137   159   157   am
   138   121   122    2
   139   121   127   am
   140   149   152   am
   141   149   150    2
   142     9     8    1
   143   134   133   ar
   144   152   153    1
   145   142   140    1
   146     8     7    1
   147   157   156    1
   148   157   158    2
   149   127   128    1
   150   156   153    1
   151   133   132    1
   152   133   135   ar
   153   153   154    1
   154   140   141    1
   155   140   137    1
   156     7     6    1
   157   132   131    1
   158   128   129    1
   159   128   131    1
   160   130   129    2
   161   155   154    2
   162     6     5    1
   163   137   136    1
   164   137   138    1
   165   139   138    2
   166     4     3    2
   167     5     2    1
   168     3     2    1
   169     2     1    1
