@<TRIPOS>MOLECULE
tmp/1v9oC01.pdb
 109 106 0 0 0
SMALL
GASTEIGER

@<TRIPOS>ATOM
      1  N         16.1240   26.0430  -20.4080 N.3     7  ILE7       -0.1245
      2  CA        17.1580   25.0200  -20.3170 C.3     7  ILE7        0.1561
      3  C         18.3390   25.5200  -21.1330 C.2     7  ILE7        0.2260
      4  O         18.2330   25.6750  -22.3530 O.2     7  ILE7       -0.2867
      5  CB        16.6740   23.6780  -20.9140 C.3     7  ILE7        0.0252
      6  CG1       15.4480   23.1710  -20.1450 C.3     7  ILE7        0.0019
      7  CG2       17.8170   22.6660  -20.9030 C.3     7  ILE7        0.0019
      8  CD1       15.6680   23.0450  -18.6450 C.3     7  ILE7        0.0001
      9  N         20.5150   19.9110  -14.2180 N.3    33  VAL33      -0.1231
     10  CA        19.7900   18.7510  -14.7090 C.3    33  VAL33       0.1692
     11  C         20.5680   18.0550  -15.8160 C.2    33  VAL33       0.2592
     12  O         21.6570   18.4860  -16.1870 O.2    33  VAL33      -0.2718
     13  CB        18.4280   19.1720  -15.2740 C.3    33  VAL33       0.0266
     14  CG1       17.5800   19.7910  -14.1760 C.3    33  VAL33       0.0020
     15  CG2       18.6360   20.1740  -16.4080 C.3    33  VAL33       0.0020
     16  N         19.9970   16.9720  -16.3320 N.am   34  GLN34      -0.1966
     17  CA        20.6030   16.2140  -17.4200 C.3    34  GLN34       0.1733
     18  C         19.5890   16.2450  -18.5530 C.2    34  GLN34       0.2617
     19  O         18.3880   16.1620  -18.3030 O.2    34  GLN34      -0.2715
     20  CB        20.8470   14.7670  -16.9920 C.3    34  GLN34       0.0408
     21  CG        21.6860   14.6150  -15.7400 C.3    34  GLN34       0.0908
     22  CD        21.8020   13.1660  -15.3090 C.2    34  GLN34       0.2608
     23  OE1       22.3560   12.3350  -16.0300 O.2    34  GLN34      -0.2717
     24  NE2       21.2690   12.8530  -14.1300 N.am   34  GLN34      -0.0878
     25  N         20.0530   16.3660  -19.7930 N.am   35  GLY35      -0.1940
     26  CA        19.1110   16.4130  -20.8980 C.3    35  GLY35       0.2014
     27  C         19.5360   15.6910  -22.1580 C.2    35  GLY35       0.2638
     28  O         20.7060   15.3520  -22.3270 O.2    35  GLY35      -0.2714
     29  N         18.5720   15.4550  -23.0440 N.am   36  HIS36      -0.1973
     30  CA        18.8220   14.7800  -24.3140 C.3    36  HIS36       0.1656
     31  C         18.0860   15.5070  -25.4340 C.2    36  HIS36       0.2291
     32  O         17.0970   16.2010  -25.1900 O.2    36  HIS36      -0.2864
     33  CB        18.3520   13.3230  -24.2460 C.3    36  HIS36       0.0771
     34  CG        18.5130   12.5720  -25.5340 C.ar   36  HIS36       0.0820
     35  ND1       17.7780   12.8620  -26.6630 N.ar   36  HIS36      -0.2267
     36  CD2       19.3270   11.5420  -25.8700 C.ar   36  HIS36       0.1154
     37  CE1       18.1300   12.0430  -27.6390 C.ar   36  HIS36       0.1986
     38  NE2       19.0680   11.2320  -27.1830 N.ar   36  HIS36      -0.2212
     39  N         23.2020   14.8780  -21.4160 N.3    38  HIS38      -0.1241
     40  CA        24.2640   15.8630  -21.1970 C.3    38  HIS38       0.1621
     41  C         23.8230   16.8100  -20.0840 C.2    38  HIS38       0.2264
     42  O         22.6270   17.0390  -19.9040 O.2    38  HIS38      -0.2867
     43  CB        24.5160   16.6660  -22.4760 C.3    38  HIS38       0.0745
     44  CG        25.0010   15.8390  -23.6250 C.ar   38  HIS38       0.0817
     45  ND1       26.2330   15.2190  -23.6290 N.ar   38  HIS38      -0.2268
     46  CD2       24.4150   15.5170  -24.8030 C.ar   38  HIS38       0.1154
     47  CE1       26.3830   14.5500  -24.7590 C.ar   38  HIS38       0.1986
     48  NE2       25.2950   14.7140  -25.4890 N.ar   38  HIS38      -0.2212
     49  N         22.8440   20.1210  -18.0820 N.3    40  LYS40      -0.1245
     50  CA        22.2270   21.3950  -18.4440 C.3    40  LYS40       0.1561
     51  C         21.8020   22.1340  -17.1810 C.2    40  LYS40       0.2260
     52  O         21.7770   21.5650  -16.0840 O.2    40  LYS40      -0.2867
     53  CB        20.9800   21.1770  -19.3120 C.3    40  LYS40       0.0271
     54  CG        21.2040   20.4400  -20.6260 C.3    40  LYS40       0.0035
     55  CD        22.0260   21.2460  -21.6160 C.3    40  LYS40       0.0206
     56  CE        22.1350   20.4970  -22.9440 C.3    40  LYS40       0.1093
     57  NZ        23.0650   21.1530  -23.9030 N.3    40  LYS40      -0.1314
     58  N         25.1210   25.8350  -32.0700 N.3    67  GLU67      -0.1231
     59  CA        25.1930   24.3810  -32.1940 C.3    67  GLU67       0.1699
     60  C         24.0110   23.6940  -31.5360 C.2    67  GLU67       0.2592
     61  O         23.5160   24.1460  -30.5080 O.2    67  GLU67      -0.2718
     62  CB        26.4870   23.8470  -31.5730 C.3    67  GLU67       0.0402
     63  CG        27.5950   23.5870  -32.5750 C.3    67  GLU67       0.1161
     64  CD        27.9860   24.8290  -33.3450 C.2    67  GLU67       0.3649
     65  OE1       28.4870   25.7850  -32.7130 O.co2  67  GLU67      -0.2457
     66  OE2       27.7910   24.8470  -34.5790 O.co2  67  GLU67      -0.2457
     67  N         23.5610   22.5980  -32.1380 N.am   68  VAL68      -0.1966
     68  CA        22.4460   21.8330  -31.6010 C.3    68  VAL68       0.1727
     69  C         22.7300   21.5460  -30.1300 C.2    68  VAL68       0.2617
     70  O         23.8410   21.1590  -29.7750 O.2    68  VAL68      -0.2715
     71  CB        22.2700   20.5010  -32.3740 C.3    68  VAL68       0.0290
     72  CG1       21.3600   19.5570  -31.6020 C.3    68  VAL68       0.0023
     73  CG2       21.6740   20.7790  -33.7580 C.3    68  VAL68       0.0023
     74  N         21.7280   21.7580  -29.2800 N.am   69  GLY69      -0.1940
     75  CA        21.8910   21.5270  -27.8550 C.3    69  GLY69       0.2014
     76  C         21.8010   22.8010  -27.0330 C.2    69  GLY69       0.2639
     77  O         21.9330   22.7690  -25.8080 O.2    69  GLY69      -0.2714
     78  N         21.5750   23.9260  -27.7050 N.am   70  ASP70      -0.1957
     79  CA        21.4730   25.2220  -27.0350 C.3    70  ASP70       0.1840
     80  C         20.3140   25.3200  -26.0490 C.2    70  ASP70       0.2623
     81  O         20.3450   26.1450  -25.1370 O.2    70  ASP70      -0.2715
     82  CB        21.3570   26.3490  -28.0650 C.3    70  ASP70       0.1450
     83  CG        22.7030   26.7360  -28.6650 C.2    70  ASP70       0.3671
     84  OD1       22.7230   27.5720  -29.5910 O.co2  70  ASP70      -0.2456
     85  OD2       23.7410   26.2120  -28.2040 O.co2  70  ASP70      -0.2456
     86  N         19.2830   24.5030  -26.2440 N.am   71  GLY71      -0.1940
     87  CA        18.1650   24.5190  -25.3190 C.3    71  GLY71       0.2014
     88  C         16.8570   25.1220  -25.7960 C.2    71  GLY71       0.2638
     89  O         16.6900   25.4600  -26.9720 O.2    71  GLY71      -0.2714
     90  N         15.9320   25.2690  -24.8510 N.am   72  LYS72      -0.1977
     91  CA        14.6030   25.8100  -25.1230 C.3    72  LYS72       0.1596
     92  C         14.1000   26.6950  -23.9850 C.2    72  LYS72       0.2287
     93  O         14.6270   26.6590  -22.8720 O.2    72  LYS72      -0.2864
     94  CB        13.6100   24.6680  -25.3180 C.3    72  LYS72       0.0298
     95  CG        13.8220   23.8340  -26.5640 C.3    72  LYS72       0.0038
     96  CD        12.7280   22.7920  -26.6890 C.3    72  LYS72       0.0206
     97  CE        12.8220   22.0460  -28.0030 C.3    72  LYS72       0.1093
     98  NZ        11.7180   21.0570  -28.1210 N.3    72  LYS72      -0.1314
     99  N         10.3850   27.7300  -22.1970 N.3    74  PHE74      -0.1241
    100  CA         8.9340   27.5730  -22.1210 C.3    74  PHE74       0.1605
    101  C          8.3250   28.7190  -21.3080 C.2    74  PHE74       0.2264
    102  O          8.8890   29.1470  -20.3040 O.2    74  PHE74      -0.2867
    103  CB         8.5440   26.2520  -21.4380 C.3    74  PHE74       0.0534
    104  CG         9.1000   25.0240  -22.1050 C.ar   74  PHE74      -0.0203
    105  CD1       10.3810   24.5730  -21.8080 C.ar   74  PHE74      -0.0042
    106  CD2        8.3430   24.3210  -23.0320 C.ar   74  PHE74      -0.0042
    107  CE1       10.8980   23.4380  -22.4250 C.ar   74  PHE74      -0.0003
    108  CE2        8.8470   23.1850  -23.6580 C.ar   74  PHE74      -0.0003
    109  CZ        10.1300   22.7390  -23.3550 C.ar   74  PHE74      -0.0000
@<TRIPOS>BOND
     1    66    64   ar
     2    73    71    1
     3    64    65   ar
     4    64    63    1
     5    63    62    1
     6    71    72    1
     7    71    68    1
     8    59    58    1
     9    59    62    1
    10    59    60    1
    11    67    68    1
    12    67    60   am
    13    68    69    1
    14    60    61    2
    15    69    70    2
    16    69    74   am
    17    84    83   ar
    18    74    75    1
    19    83    85   ar
    20    83    82    1
    21    98    97    1
    22    82    79    1
    23    97    96    1
    24    75    76    1
    25    78    79    1
    26    78    76   am
    27    37    38   ar
    28    37    35   ar
    29    38    36   ar
    30    79    80    1
    31    76    77    2
    32    89    88    2
    33    96    95    1
    34    35    34   ar
    35    95    94    1
    36    86    80   am
    37    86    87    1
    38    80    81    2
    39    36    34   ar
    40    88    87    1
    41    88    90   am
    42    34    33    1
    43    48    46   ar
    44    48    47   ar
    45    31    32    2
    46    31    30    1
    47    94    91    1
    48    91    90    1
    49    91    92    1
    50    46    44   ar
    51    47    45   ar
    52    30    33    1
    53    30    29    1
    54    92    93    2
    55    57    56    1
    56   108   109   ar
    57   108   106   ar
    58    45    44   ar
    59    44    43    1
    60   109   107   ar
    61    29    27   am
    62   106   104   ar
    63    56    55    1
    64    43    40    1
    65   107   105   ar
    66     4     3    2
    67    28    27    2
    68    99   100    1
    69    27    26    1
    70   100   103    1
    71   100   101    1
    72   104   105   ar
    73   104   103    1
    74    55    54    1
    75    39    40    1
    76   101   102    2
    77    40    41    1
    78     3     2    1
    79     5     7    1
    80     5     2    1
    81     5     6    1
    82    26    25    1
    83    54    53    1
    84     1     2    1
    85     6     8    1
    86    41    42    2
    87    25    18   am
    88    53    50    1
    89    18    19    2
    90    18    17    1
    91    50    49    1
    92    50    51    1
    93    17    20    1
    94    17    16    1
    95    51    52    2
    96    20    21    1
    97    15    13    1
    98    16    11   am
    99    12    11    2
   100    23    22    2
   101    11    10    1
   102    21    22    1
   103    22    24   am
   104    13    10    1
   105    13    14    1
   106    10     9    1
