@<TRIPOS>MOLECULE
tmp/1v9pA00.pdb
 163 154 0 0 0
SMALL
GASTEIGER

@<TRIPOS>ATOM
      1  N         24.9370    2.4480    8.7270 N.3    83  TYR83      -0.1227
      2  CA        24.4410    1.9780   10.0110 C.3    83  TYR83       0.1736
      3  C         24.2660    3.0790   11.0290 C.2    83  TYR83       0.2596
      4  O         24.5510    4.2400   10.7730 O.2    83  TYR83      -0.2718
      5  CB        25.3710    0.9290   10.6180 C.3    83  TYR83       0.0548
      6  CG        25.3640   -0.4200    9.9440 C.ar   83  TYR83      -0.0200
      7  CD1       26.2040   -0.6840    8.8610 C.ar   83  TYR83      -0.0009
      8  CD2       24.5600   -1.4580   10.4290 C.ar   83  TYR83      -0.0009
      9  CE1       26.2610   -1.9570    8.2770 C.ar   83  TYR83       0.0417
     10  CE2       24.6010   -2.7350    9.8510 C.ar   83  TYR83       0.0417
     11  CZ        25.4600   -2.9730    8.7780 C.ar   83  TYR83       0.1957
     12  OH        25.5360   -4.2300    8.2230 O.3    83  TYR83      -0.2866
     13  N         23.7880    2.6770   12.1950 N.am   84  SER84      -0.1938
     14  CA        23.5940    3.5670   13.3210 C.3    84  SER84       0.2055
     15  C         24.5290    3.0320   14.4220 C.2    84  SER84       0.2642
     16  O         24.8770    1.8430   14.4340 O.2    84  SER84      -0.2714
     17  CB        22.1460    3.4910   13.7880 C.3    84  SER84       0.2130
     18  OG        21.8230    2.1600   14.1540 O.3    84  SER84      -0.2179
     19  N         24.9420    3.9030   15.3350 N.am   85  LEU85      -0.1977
     20  CA        25.8140    3.4900   16.4260 C.3    85  LEU85       0.1596
     21  C         24.9830    3.0680   17.6330 C.2    85  LEU85       0.2287
     22  O         23.8010    3.4060   17.7350 O.2    85  LEU85      -0.2864
     23  CB        26.7190    4.6510   16.8390 C.3    85  LEU85       0.0297
     24  CG        27.6790    5.2150   15.7980 C.3    85  LEU85       0.0022
     25  CD1       28.5280    6.3050   16.4410 C.3    85  LEU85       0.0001
     26  CD2       28.5620    4.1120   15.2480 C.3    85  LEU85       0.0001
     27  N         24.3570    3.1570   21.7840 N.3    87  ASN87      -0.1240
     28  CA        24.5360    4.1860   22.8130 C.3    87  ASN87       0.1653
     29  C         24.9530    3.8180   24.2280 C.2    87  ASN87       0.2266
     30  O         24.3210    2.9970   24.8900 O.2    87  ASN87      -0.2867
     31  CB        23.2660    5.0210   22.9080 C.3    87  ASN87       0.1155
     32  CG        23.0360    5.8470   21.6790 C.2    87  ASN87       0.2627
     33  OD1       21.9360    6.3620   21.4610 O.2    87  ASN87      -0.2716
     34  ND2       24.0760    5.9920   20.8620 N.am   87  ASN87      -0.0877
     35  N         35.4670   12.0150   18.3660 N.3   116  GLU116     -0.1231
     36  CA        34.9960   13.2210   17.7130 C.3   116  GLU116      0.1699
     37  C         33.6700   13.6530   18.3030 C.2   116  GLU116      0.2592
     38  O         33.0300   12.8900   19.0290 O.2   116  GLU116     -0.2718
     39  CB        34.8850   12.9820   16.1970 C.3   116  GLU116      0.0402
     40  CG        34.2220   11.6640   15.7880 C.3   116  GLU116      0.1161
     41  CD        34.3990   11.3440   14.3010 C.2   116  GLU116      0.3649
     42  OE1       35.4960   10.8920   13.9150 O.co2 116  GLU116     -0.2457
     43  OE2       33.4470   11.5550   13.5170 O.co2 116  GLU116     -0.2457
     44  N         33.2740   14.8890   18.0180 N.am  117  HIS117     -0.1962
     45  CA        32.0140   15.4100   18.5280 C.3   117  HIS117      0.1787
     46  C         30.8780   14.7200   17.8020 C.2   117  HIS117      0.2620
     47  O         31.0640   14.2050   16.7040 O.2   117  HIS117     -0.2715
     48  CB        31.9000   16.9170   18.2900 C.3   117  HIS117      0.0785
     49  CG        32.7270   17.7490   19.2200 C.ar  117  HIS117      0.0821
     50  ND1       34.0300   18.1040   18.9450 N.ar  117  HIS117     -0.2267
     51  CD2       32.4310   18.3020   20.4210 C.ar  117  HIS117      0.1154
     52  CE1       34.5000   18.8410   19.9360 C.ar  117  HIS117      0.1986
     53  NE2       33.5500   18.9760   20.8440 N.ar  117  HIS117     -0.2212
     54  N         29.7040   14.7070   18.4200 N.am  118  LYS118     -0.1963
     55  CA        28.5340   14.1090   17.8070 C.3   118  LYS118      0.1728
     56  C         27.6350   15.1700   17.1940 C.2   118  LYS118      0.2616
     57  O         26.7650   15.7290   17.8640 O.2   118  LYS118     -0.2715
     58  CB        27.7390   13.3110   18.8250 C.3   118  LYS118      0.0311
     59  CG        28.2920   11.9350   19.0320 C.3   118  LYS118      0.0038
     60  CD        27.2490   11.0270   19.6410 C.3   118  LYS118      0.0206
     61  CE        26.0350   10.9160   18.7490 C.3   118  LYS118      0.1093
     62  NZ        25.0820    9.9180   19.3080 N.3   118  LYS118     -0.1314
     63  N         27.8510   15.4260   15.9100 N.am  119  VAL119     -0.1963
     64  CA        27.0980   16.4120   15.1600 C.3   119  VAL119      0.1727
     65  C         25.6060   16.1190   15.1470 C.2   119  VAL119      0.2616
     66  O         25.1530   15.2180   14.4490 O.2   119  VAL119     -0.2715
     67  CB        27.5860   16.4400   13.7190 C.3   119  VAL119      0.0290
     68  CG1       26.9430   17.5830   12.9840 C.3   119  VAL119      0.0023
     69  CG2       29.0880   16.5490   13.6940 C.3   119  VAL119      0.0023
     70  N         24.8350   16.8710   15.9210 N.am  120  ASP120     -0.1971
     71  CA        23.3990   16.6520   15.9460 C.3   120  ASP120      0.1709
     72  C         22.8460   17.1280   14.6150 C.2   120  ASP120      0.2293
     73  O         22.4710   18.2900   14.4650 O.2   120  ASP120     -0.2864
     74  CB        22.7520   17.4460   17.0800 C.3   120  ASP120      0.1436
     75  CG        21.2360   17.3470   17.0710 C.2   120  ASP120      0.3671
     76  OD1       20.6560   17.1310   15.9890 O.co2 120  ASP120     -0.2456
     77  OD2       20.6150   17.4960   18.1430 O.co2 120  ASP120     -0.2456
     78  N         22.2600   12.4370    8.6320 N.3   123  SER123     -0.1217
     79  CA        23.1870   11.6530    7.8480 C.3   123  SER123      0.1889
     80  C         22.8530   11.8180    6.3820 C.2   123  SER123      0.2288
     81  O         21.6880   11.7590    6.0050 O.2   123  SER123     -0.2866
     82  CB        23.0730   10.1840    8.2260 C.3   123  SER123      0.2089
     83  OG        23.0720   10.0340    9.6290 O.3   123  SER123     -0.2183
     84  N         27.4320   14.4250    7.5520 N.3   174  GLU174     -0.1245
     85  CA        26.1400   14.9460    7.9560 C.3   174  GLU174      0.1567
     86  C         25.8840   16.3720    7.4910 C.2   174  GLU174      0.2260
     87  O         26.8100   17.0890    7.1200 O.2   174  GLU174     -0.2867
     88  CB        25.9800   14.8690    9.4740 C.3   174  GLU174      0.0388
     89  CG        25.5110   13.5100    9.9720 C.3   174  GLU174      0.1160
     90  CD        24.5380   13.6480   11.1300 C.2   174  GLU174      0.3649
     91  OE1       24.5500   14.7350   11.7390 O.co2 174  GLU174     -0.2457
     92  OE2       23.7700   12.6980   11.4380 O.co2 174  GLU174     -0.2457
     93  N         18.2640   18.8820   14.3750 N.3   201  ARG201     -0.1245
     94  CA        18.2350   17.7510   13.4520 C.3   201  ARG201      0.1563
     95  C         17.0420   17.9730   12.5270 C.2   201  ARG201      0.2260
     96  O         17.1950   18.1270   11.3150 O.2   201  ARG201     -0.2867
     97  CB        18.0940   16.4070   14.1940 C.3   201  ARG201      0.0307
     98  CG        18.4670   15.1830   13.3100 C.3   201  ARG201      0.0489
     99  CD        18.2770   13.8280   14.0160 C.3   201  ARG201      0.2205
    100  NE        18.6590   12.6720   13.1850 N.pl3 201  ARG201     -0.0865
    101  CZ        19.8650   12.0920   13.1680 C.cat 201  ARG201      0.5346
    102  NH1       20.8450   12.5490   13.9410 N.pl3 201  ARG201      0.1354
    103  NH2       20.0940   11.0450   12.3770 N.pl3 201  ARG201      0.1354
    104  N         32.7390   12.3650    7.7260 N.3   226  TYR226     -0.1241
    105  CA        33.6190   11.5170    8.5290 C.3   226  TYR226      0.1605
    106  C         33.8030   10.0500    8.1060 C.2   226  TYR226      0.2264
    107  O         34.6050    9.3410    8.7090 O.2   226  TYR226     -0.2867
    108  CB        33.0740   11.5160    9.9420 C.3   226  TYR226      0.0534
    109  CG        31.6080   11.1900    9.9440 C.ar  226  TYR226     -0.0201
    110  CD1       30.6630   12.1530   10.2650 C.ar  226  TYR226     -0.0009
    111  CD2       31.1590    9.9260    9.5690 C.ar  226  TYR226     -0.0009
    112  CE1       29.2960   11.8650   10.2110 C.ar  226  TYR226      0.0417
    113  CE2       29.7980    9.6290    9.5100 C.ar  226  TYR226      0.0417
    114  CZ        28.8820   10.6050    9.8310 C.ar  226  TYR226      0.1957
    115  OH        27.5480   10.3350    9.7620 O.3   226  TYR226     -0.2866
    116  N         33.2540   19.3350   12.5650 N.3   256  HIS256     -0.1241
    117  CA        33.0320   18.8330   13.9120 C.3   256  HIS256      0.1621
    118  C         34.4180   18.4420   14.3780 C.2   256  HIS256      0.2264
    119  O         35.2220   17.9530   13.5720 O.2   256  HIS256     -0.2867
    120  CB        32.1360   17.6000   13.8810 C.3   256  HIS256      0.0745
    121  CG        32.7530   16.4190   13.1970 C.ar  256  HIS256      0.0817
    122  ND1       33.2590   16.4800   11.9180 N.ar  256  HIS256     -0.2268
    123  CD2       32.9200   15.1390   13.6070 C.ar  256  HIS256      0.1154
    124  CE1       33.7090   15.2890   11.5670 C.ar  256  HIS256      0.1986
    125  NE2       33.5140   14.4560   12.5740 N.ar  256  HIS256     -0.2212
    126  N         25.1840   16.2720   21.2430 N.3   286  ASP286     -0.1239
    127  CA        24.6910   15.5680   22.4210 C.3   286  ASP286      0.1674
    128  C         25.5150   14.3950   22.9350 C.2   286  ASP286      0.2266
    129  O         24.9750   13.5280   23.6420 O.2   286  ASP286     -0.2867
    130  CB        23.2490   15.1040   22.1710 C.3   286  ASP286      0.1410
    131  CG        22.2050   16.1850   22.4980 C.2   286  ASP286      0.3668
    132  OD1       21.5990   16.1310   23.5920 O.co2 286  ASP286     -0.2456
    133  OD2       21.9900   17.0890   21.6660 O.co2 286  ASP286     -0.2456
    134  N         31.7710   10.3620   19.7620 N.3   289  VAL289     -0.1245
    135  CA        31.8350    9.0540   19.1400 C.3   289  VAL289      0.1561
    136  C         33.1940    8.3640   19.2140 C.2   289  VAL289      0.2260
    137  O         34.1770    8.7930   18.5940 O.2   289  VAL289     -0.2867
    138  CB        31.3740    9.1240   17.6500 C.3   289  VAL289      0.0252
    139  CG1       31.4750    7.7450   16.9950 C.3   289  VAL289      0.0019
    140  CG2       29.9410    9.5990   17.5810 C.3   289  VAL289      0.0019
    141  N         35.6030    5.7920   18.1260 N.3   291  LYS291     -0.1245
    142  CA        35.8280    4.9240   16.9520 C.3   291  LYS291      0.1561
    143  C         37.1930    4.2280   17.0070 C.2   291  LYS291      0.2260
    144  O         38.2370    4.8970   17.0420 O.2   291  LYS291     -0.2867
    145  CB        35.7700    5.7110   15.6250 C.3   291  LYS291      0.0271
    146  CG        34.3980    6.1470   15.1230 C.3   291  LYS291      0.0035
    147  CD        34.5620    6.8520   13.7530 C.3   291  LYS291      0.0206
    148  CE        33.2280    7.2490   13.0740 C.3   291  LYS291      0.1093
    149  NZ        32.4220    6.1080   12.5200 N.3   291  LYS291     -0.1314
    150  N         28.8400    5.3060   20.5000 N.3   313  ALA313     -0.1245
    151  CA        28.4220    6.6800   20.7430 C.3   313  ALA313      0.1562
    152  C         28.2140    6.9340   22.2230 C.2   313  ALA313      0.2260
    153  O         27.2380    6.4590   22.8050 O.2   313  ALA313     -0.2867
    154  CB        27.1390    6.9810   19.9820 C.3   313  ALA313      0.0290
    155  N         27.1650    9.2990   24.8450 N.3   315  LYS315     -0.1245
    156  CA        26.3200   10.4830   24.9260 C.3   315  LYS315      0.1561
    157  C         26.2570   11.2070   26.2620 C.2   315  LYS315      0.2260
    158  O         26.2940   10.5790   27.3220 O.2   315  LYS315     -0.2867
    159  CB        24.8930   10.1200   24.4900 C.3   315  LYS315      0.0271
    160  CG        24.8080    9.4090   23.1350 C.3   315  LYS315      0.0035
    161  CD        23.7090    9.9860   22.2620 C.3   315  LYS315      0.0206
    162  CE        22.3490    9.9300   22.9510 C.3   315  LYS315      0.1093
    163  NZ        21.2570   10.4780   22.0930 N.3   315  LYS315     -0.1314
@<TRIPOS>BOND
     1    81    80    2
     2    80    79    1
     3    87    86    2
     4    86    85    1
     5    84    85    1
     6   104   105    1
     7    79    82    1
     8    79    78    1
     9    85    88    1
    10   106   105    1
    11   106   107    2
    12    12    11    1
    13    82    83    1
    14     9    11   ar
    15     9     7   ar
    16   105   108    1
    17     1     2    1
    18    11    10   ar
    19     7     6   ar
    20    88    89    1
    21   113   111   ar
    22   113   114   ar
    23   111   109   ar
    24   115   114    1
    25   114   112   ar
    26    10     8   ar
    27   108   109    1
    28   109   110   ar
    29     6     8   ar
    30     6     5    1
    31    89    90    1
    32     2     5    1
    33     2     3    1
    34   112   110   ar
    35     4     3    2
    36     3    13   am
    37    90    92   ar
    38    90    91   ar
    39    96    95    2
    40   124   122   ar
    41   124   125   ar
    42   122   121   ar
    43    13    14    1
    44   103   101    1
    45   149   148    1
    46    95    94    1
    47   116   117    1
    48   125   123   ar
    49    68    67    1
    50   148   147    1
    51   101   100    2
    52   101   102    1
    53   100    99    1
    54   121   123   ar
    55   121   120    1
    56    98    99    1
    57    98    97    1
    58    14    17    1
    59    14    15    1
    60    94    97    1
    61    94    93    1
    62    43    41   ar
    63   119   118    2
    64    69    67    1
    65    67    64    1
    66   147   146    1
    67    17    18    1
    68   120   117    1
    69   117   118    1
    70    42    41   ar
    71    41    40    1
    72    15    16    2
    73    15    19   am
    74    66    65    2
    75    73    72    2
    76    72    71    1
    77   146   145    1
    78    65    64    1
    79    65    70   am
    80    64    63    1
    81    26    24    1
    82    19    20    1
    83   145   142    1
    84    40    39    1
    85    24    25    1
    86    24    23    1
    87    63    56   am
    88    70    71    1
    89    71    74    1
    90    76    75   ar
    91    39    36    1
    92    20    23    1
    93    20    21    1
    94    47    46    2
    95   142   143    1
    96   142   141    1
    97   139   138    1
    98   143   144    2
    99    75    74    1
   100    75    77   ar
   101    56    55    1
   102    56    57    2
   103   140   138    1
   104    21    22    2
   105   138   135    1
   106    36    37    1
   107    36    35    1
   108    46    54   am
   109    46    45    1
   110    55    54    1
   111    55    58    1
   112    44    37   am
   113    44    45    1
   114    48    45    1
   115    48    49    1
   116    37    38    2
   117   137   136    2
   118    61    62    1
   119    61    60    1
   120    58    59    1
   121    50    49   ar
   122    50    52   ar
   123    59    60    1
   124   135   136    1
   125   135   134    1
   126    49    51   ar
   127    52    53   ar
   128   154   151    1
   129    51    53   ar
   130   150   151    1
   131   151   152    1
   132    34    32   am
   133   126   127    1
   134    33    32    2
   135   133   131   ar
   136    32    31    1
   137    27    28    1
   138   163   162    1
   139   130   127    1
   140   130   131    1
   141   152   153    2
   142   161   162    1
   143   161   160    1
   144   127   128    1
   145   131   132   ar
   146    28    31    1
   147    28    29    1
   148   128   129    2
   149   160   159    1
   150    29    30    2
   151   159   156    1
   152   155   156    1
   153   156   157    1
   154   157   158    2
