@<TRIPOS>MOLECULE
tmp/1v9tB00.pdb
 150 145 0 0 0
SMALL
GASTEIGER

@<TRIPOS>ATOM
      1  N         -3.3150   34.5850   15.1880 N.3    47  HIS47      -0.1226
      2  CA        -3.2920   35.8890   15.8400 C.3    47  HIS47       0.1752
      3  C         -2.6610   36.9770   14.9780 C.2    47  HIS47       0.2595
      4  O         -2.6670   38.1490   15.3480 O.2    47  HIS47      -0.2718
      5  CB        -2.5430   35.7960   17.1750 C.3    47  HIS47       0.0759
      6  CG        -1.0910   35.4560   17.0320 C.ar   47  HIS47       0.0818
      7  ND1       -0.6500   34.1880   16.7190 N.ar   47  HIS47      -0.2268
      8  CD2        0.0210   36.2190   17.1630 C.ar   47  HIS47       0.1154
      9  CE1        0.6710   34.1850   16.6630 C.ar   47  HIS47       0.1986
     10  NE2        1.1020   35.4050   16.9280 N.ar   47  HIS47      -0.2212
     11  N         -2.0530   36.5820   13.8660 N.am   48  ARG48      -0.1980
     12  CA        -1.4550   37.5560   12.9630 C.3    48  ARG48       0.1597
     13  C         -1.6880   37.1480   11.5180 C.2    48  ARG48       0.2287
     14  O         -1.2650   36.0760   11.0930 O.2    48  ARG48      -0.2864
     15  CB         0.0480   37.6990   13.2300 C.3    48  ARG48       0.0334
     16  CG         0.7220   38.7340   12.3370 C.3    48  ARG48       0.0492
     17  CD         2.1120   39.1010   12.8340 C.3    48  ARG48       0.2205
     18  NE         3.1340   38.2490   12.2440 N.pl3  48  ARG48      -0.0865
     19  CZ         4.1440   38.6850   11.4980 C.cat  48  ARG48       0.5346
     20  NH1        4.2840   39.9740   11.2350 N.pl3  48  ARG48       0.1354
     21  NH2        5.0310   37.8250   11.0300 N.pl3  48  ARG48       0.1354
     22  N          0.4680   37.6510    2.0580 N.3    53  PHE53      -0.1227
     23  CA         1.7150   37.3340    2.7450 C.3    53  PHE53       0.1736
     24  C          1.6240   35.9820    3.4700 C.2    53  PHE53       0.2595
     25  O          2.0550   34.9530    2.9420 O.2    53  PHE53      -0.2718
     26  CB         2.0470   38.4690    3.7240 C.3    53  PHE53       0.0547
     27  CG         3.3080   38.2610    4.5240 C.ar   53  PHE53      -0.0202
     28  CD1        4.2220   37.2610    4.2000 C.ar   53  PHE53      -0.0042
     29  CD2        3.5760   39.0790    5.6210 C.ar   53  PHE53      -0.0042
     30  CE1        5.3850   37.0760    4.9590 C.ar   53  PHE53      -0.0003
     31  CE2        4.7340   38.9050    6.3870 C.ar   53  PHE53      -0.0003
     32  CZ         5.6380   37.9020    6.0570 C.ar   53  PHE53      -0.0000
     33  N          1.0460   35.9800    4.6670 N.am   54  MET54      -0.1979
     34  CA         0.9030   34.7440    5.4270 C.3    54  MET54       0.1605
     35  C         -0.1160   34.8640    6.5660 C.2    54  MET54       0.2287
     36  O         -0.6410   35.9430    6.8460 O.2    54  MET54      -0.2864
     37  CB         2.2660   34.3120    5.9830 C.3    54  MET54       0.0413
     38  CG         2.9420   35.3560    6.8700 C.3    54  MET54       0.0598
     39  SD         2.4390   35.2500    8.6030 S.3    54  MET54      -0.1393
     40  CE         1.8250   36.9040    8.8830 C.3    54  MET54       0.0692
     41  N         -0.4450   33.4650   10.6100 N.3    56  GLN56      -0.1245
     42  CA         0.3860   32.9130   11.6720 C.3    56  GLN56       0.1566
     43  C         -0.4670   32.5370   12.8810 C.2    56  GLN56       0.2260
     44  O         -1.3690   33.2910   13.2680 O.2    56  GLN56      -0.2867
     45  CB         1.4340   33.9440   12.0790 C.3    56  GLN56       0.0367
     46  CG         2.3600   33.5080   13.1920 C.3    56  GLN56       0.0905
     47  CD         3.3940   34.5730   13.5190 C.2    56  GLN56       0.2608
     48  OE1        3.6510   35.4730   12.7130 O.2    56  GLN56      -0.2717
     49  NE2        4.0080   34.4640   14.6890 N.am   56  GLN56      -0.0878
     50  N         -0.7990   33.9120   26.0380 N.3    66  GLN66      -0.1245
     51  CA         0.2720   33.1310   25.4340 C.3    66  GLN66       0.1566
     52  C          0.3700   31.7670   26.1160 C.2    66  GLN66       0.2260
     53  O          0.4390   31.6870   27.3420 O.2    66  GLN66      -0.2867
     54  CB         1.5950   33.8830   25.5790 C.3    66  GLN66       0.0367
     55  CG         2.5980   33.6090   24.4760 C.3    66  GLN66       0.0905
     56  CD         3.8370   34.4860   24.5950 C.2    66  GLN66       0.2608
     57  OE1        4.0390   35.1630   25.6100 O.2    66  GLN66      -0.2717
     58  NE2        4.6750   34.4760   23.5580 N.am   66  GLN66      -0.0878
     59  N          7.5850   29.9310   12.6850 N.3    91  ALA91      -0.1231
     60  CA         7.8990   31.2650   13.1760 C.3    91  ALA91       0.1694
     61  C          8.9250   31.1440   14.2930 C.2    91  ALA91       0.2592
     62  O          9.0560   30.0940   14.9250 O.2    91  ALA91      -0.2718
     63  CB         6.6370   31.9500   13.7000 C.3    91  ALA91       0.0304
     64  N          9.6150   32.2410   14.5630 N.am   92  ARG92      -0.1966
     65  CA        10.6610   32.2700   15.5800 C.3    92  ARG92       0.1729
     66  C         11.0020   33.7290   15.8130 C.2    92  ARG92       0.2616
     67  O         10.5440   34.6090   15.0840 O.2    92  ARG92      -0.2715
     68  CB        11.9130   31.5240   15.0920 C.3    92  ARG92       0.0348
     69  CG        12.4540   32.0170   13.7450 C.3    92  ARG92       0.0492
     70  CD        13.8700   31.5250   13.5020 C.3    92  ARG92       0.2205
     71  NE        14.4220   31.9700   12.2230 N.pl3  92  ARG92      -0.0865
     72  CZ        15.1510   33.0700   12.0620 C.cat  92  ARG92       0.5346
     73  NH1       15.4030   33.8660   13.0970 N.pl3  92  ARG92       0.1354
     74  NH2       15.7030   33.3310   10.8850 N.pl3  92  ARG92       0.1354
     75  N         11.8380   33.9840   16.8030 N.am   93  THR93      -0.1951
     76  CA        12.3290   35.3300   17.0190 C.3    93  THR93       0.1897
     77  C         13.6960   35.5090   16.3460 C.2    93  THR93       0.2313
     78  O         14.0880   34.7050   15.4950 O.2    93  THR93      -0.2863
     79  CB        12.4120   35.6260   18.5220 C.3    93  THR93       0.1794
     80  OG1       13.1360   34.5790   19.1750 O.3    93  THR93      -0.2208
     81  CG2       11.0080   35.6970   19.1220 C.3    93  THR93       0.0378
     82  N         15.2290   29.4920   17.7370 N.3    98  SER98      -0.1202
     83  CA        14.2790   29.8920   18.7710 C.3    98  SER98       0.2020
     84  C         12.8290   29.4560   18.5360 C.2    98  SER98       0.2619
     85  O         11.9590   29.7730   19.3400 O.2    98  SER98      -0.2717
     86  CB        14.3280   31.4110   18.9760 C.3    98  SER98       0.2103
     87  OG        14.0020   32.0950   17.7830 O.3    98  SER98      -0.2182
     88  N         12.5690   28.7150   17.4620 N.am   99  ALA99      -0.1965
     89  CA        11.1990   28.2800   17.1670 C.3    99  ALA99       0.1728
     90  C         10.6810   27.3440   18.2490 C.2    99  ALA99       0.2616
     91  O         11.4030   26.4590   18.7060 O.2    99  ALA99      -0.2715
     92  CB        11.1380   27.5770   15.8160 C.3    99  ALA99       0.0334
     93  N          9.4330   27.5440   18.6610 N.am  100  THR100     -0.1951
     94  CA         8.7730   26.5890   19.5400 C.3   100  THR100      0.1897
     95  C          7.4910   26.0630   18.8990 C.2   100  THR100      0.2313
     96  O          7.5430   25.1060   18.1250 O.2   100  THR100     -0.2863
     97  CB         8.4790   27.1930   20.9390 C.3   100  THR100      0.1794
     98  OG1        7.7610   28.4250   20.8000 O.3   100  THR100     -0.2208
     99  CG2        9.7860   27.4540   21.6880 C.3   100  THR100      0.0378
    100  N          4.8380   28.2260   17.3210 N.3   102  GLN102     -0.1245
    101  CA         4.1740   29.0830   16.3410 C.3   102  GLN102      0.1566
    102  C          4.5780   28.7770   14.9000 C.2   102  GLN102      0.2260
    103  O          5.7590   28.5950   14.5840 O.2   102  GLN102     -0.2867
    104  CB         4.4410   30.5580   16.6560 C.3   102  GLN102      0.0367
    105  CG         3.7190   31.0570   17.9010 C.3   102  GLN102      0.0905
    106  CD         3.9560   32.5250   18.1860 C.2   102  GLN102      0.2608
    107  OE1        3.7470   33.3740   17.3290 O.2   102  GLN102     -0.2717
    108  NE2        4.3670   32.8300   19.4090 N.am  102  GLN102     -0.0878
    109  N          3.4690   29.4920   10.4870 N.3   104  PHE104     -0.1241
    110  CA         2.7040   30.2700    9.5240 C.3   104  PHE104      0.1605
    111  C          2.5520   29.5450    8.1940 C.2   104  PHE104      0.2264
    112  O          3.3460   28.6600    7.8590 O.2   104  PHE104     -0.2867
    113  CB         3.3350   31.6490    9.3120 C.3   104  PHE104      0.0534
    114  CG         4.7410   31.6060    8.7820 C.ar  104  PHE104     -0.0203
    115  CD1        4.9860   31.7210    7.4140 C.ar  104  PHE104     -0.0042
    116  CD2        5.8250   31.4880    9.6500 C.ar  104  PHE104     -0.0042
    117  CE1        6.2930   31.7240    6.9170 C.ar  104  PHE104     -0.0003
    118  CE2        7.1390   31.4910    9.1600 C.ar  104  PHE104     -0.0003
    119  CZ         7.3680   31.6120    7.7910 C.ar  104  PHE104     -0.0000
    120  N         11.8110   36.1570    0.2170 N.3   112  PHE112     -0.1227
    121  CA        12.5510   36.9490    1.1900 C.3   112  PHE112      0.1736
    122  C         12.6650   36.2440    2.5490 C.2   112  PHE112      0.2595
    123  O         13.4160   36.6840    3.4200 O.2   112  PHE112     -0.2718
    124  CB        11.9010   38.3300    1.3540 C.3   112  PHE112      0.0547
    125  CG        10.4330   38.2830    1.6800 C.ar  112  PHE112     -0.0202
    126  CD1       10.0030   38.0520    2.9820 C.ar  112  PHE112     -0.0042
    127  CD2        9.4840   38.4800    0.6890 C.ar  112  PHE112     -0.0042
    128  CE1        8.6390   38.0160    3.2940 C.ar  112  PHE112     -0.0003
    129  CE2        8.1170   38.4470    0.9890 C.ar  112  PHE112     -0.0003
    130  CZ         7.6970   38.2130    2.2990 C.ar  112  PHE112     -0.0000
    131  N         11.9460   35.1310    2.7100 N.am  113  LEU113     -0.1980
    132  CA        11.9870   34.3490    3.9470 C.3   113  LEU113      0.1596
    133  C         12.8920   33.1280    3.8210 C.2   113  LEU113      0.2287
    134  O         13.1240   32.4140    4.7980 O.2   113  LEU113     -0.2864
    135  CB        10.5830   33.8830    4.3330 C.3   113  LEU113      0.0297
    136  CG         9.5600   34.9550    4.7180 C.3   113  LEU113      0.0022
    137  CD1        8.2300   34.2850    5.0140 C.3   113  LEU113      0.0001
    138  CD2       10.0520   35.7460    5.9200 C.3   113  LEU113      0.0001
    139  N         13.5840   30.9320    7.3390 N.3   122  TYR122     -0.1241
    140  CA        12.5540   30.2260    8.0990 C.3   122  TYR122      0.1605
    141  C         12.2920   28.8230    7.5510 C.2   122  TYR122      0.2264
    142  O         12.2250   28.6180    6.3370 O.2   122  TYR122     -0.2867
    143  CB        11.2710   31.0640    8.1170 C.3   122  TYR122      0.0534
    144  CG        11.4780   32.4030    8.7790 C.ar  122  TYR122     -0.0201
    145  CD1       12.1120   33.4430    8.1010 C.ar  122  TYR122     -0.0009
    146  CD2       11.1050   32.6140   10.1060 C.ar  122  TYR122     -0.0009
    147  CE1       12.3840   34.6500    8.7280 C.ar  122  TYR122      0.0417
    148  CE2       11.3720   33.8220   10.7450 C.ar  122  TYR122      0.0417
    149  CZ        12.0180   34.8310   10.0470 C.ar  122  TYR122      0.1957
    150  OH        12.3040   36.0200   10.6670 O.3   122  TYR122     -0.2866
@<TRIPOS>BOND
     1   120   121    1
     2   127   129   ar
     3   127   125   ar
     4   129   130   ar
     5   121   124    1
     6   121   122    1
     7   124   125    1
     8   125   126   ar
     9    22    23    1
    10   130   128   ar
    11   122   131   am
    12   122   123    2
    13   131   132    1
    14    23    24    1
    15    23    26    1
    16    25    24    2
    17   126   128   ar
    18    24    33   am
    19    26    27    1
    20   133   132    1
    21   133   134    2
    22   132   135    1
    23    28    27   ar
    24    28    30   ar
    25   135   136    1
    26    27    29   ar
    27    33    34    1
    28   136   137    1
    29   136   138    1
    30    30    32   ar
    31    34    37    1
    32    34    35    1
    33    29    31   ar
    34    37    38    1
    35    32    31   ar
    36   142   141    2
    37    35    36    2
    38    38    39    1
    39   117   115   ar
    40   117   119   ar
    41   139   140    1
    42   115   114   ar
    43   141   140    1
    44   119   118   ar
    45   112   111    2
    46   140   143    1
    47   145   147   ar
    48   145   144   ar
    49   143   144    1
    50   111   110    1
    51    39    40    1
    52   147   149   ar
    53   144   146   ar
    54   114   113    1
    55   114   116   ar
    56   118   116   ar
    57   113   110    1
    58   110   109    1
    59   149   150    1
    60   149   148   ar
    61   146   148   ar
    62    41    42    1
    63    74    72    1
    64    21    19    1
    65    14    13    2
    66    20    19    1
    67    19    18    2
    68    13    12    1
    69    42    45    1
    70    42    43    1
    71    72    71    2
    72    72    73    1
    73    45    46    1
    74    71    70    1
    75    18    17    1
    76    16    17    1
    77    16    15    1
    78    59    60    1
    79    48    47    2
    80    43    44    2
    81    12    15    1
    82    12    11    1
    83    60    63    1
    84    60    61    1
    85    46    47    1
    86    70    69    1
    87    47    49   am
    88    69    68    1
    89    11     3   am
    90    61    64   am
    91    61    62    2
    92    64    65    1
    93   103   102    2
    94   102   101    1
    95     3     4    2
    96     3     2    1
    97    67    66    2
    98    68    65    1
    99     1     2    1
   100    78    77    2
   101    65    66    1
   102    66    75   am
   103    92    89    1
   104     2     5    1
   105   101   104    1
   106   101   100    1
   107    77    76    1
   108   104   105    1
   109     9     7   ar
   110     9    10   ar
   111     7     6   ar
   112    75    76    1
   113    10     8   ar
   114    76    79    1
   115     6     8   ar
   116     6     5    1
   117    89    88    1
   118    89    90    1
   119   107   106    2
   120    88    84   am
   121    82    83    1
   122    87    86    1
   123   105   106    1
   124    96    95    2
   125   106   108   am
   126    90    93   am
   127    90    91    2
   128    79    81    1
   129    79    80    1
   130    84    83    1
   131    84    85    2
   132    93    94    1
   133    83    86    1
   134    95    94    1
   135    94    97    1
   136    98    97    1
   137    97    99    1
   138    58    56   am
   139    55    56    1
   140    55    54    1
   141    56    57    2
   142    51    54    1
   143    51    50    1
   144    51    52    1
   145    52    53    2
