@<TRIPOS>MOLECULE
tmp/1va5B00.pdb
 162 160 0 0 0
SMALL
GASTEIGER

@<TRIPOS>ATOM
      1  N        -78.0260   46.0230  -30.7810 N.3    39  ASP39      -0.1225
      2  CA       -76.6670   45.9060  -31.3190 C.3    39  ASP39       0.1805
      3  C        -75.7470   45.0860  -30.4150 C.2    39  ASP39       0.2598
      4  O        -76.1490   44.6310  -29.3400 O.2    39  ASP39      -0.2718
      5  CB       -76.0690   47.3080  -31.5040 C.3    39  ASP39       0.1424
      6  CG       -75.0670   47.3880  -32.6500 C.2    39  ASP39       0.3668
      7  OD1      -74.4970   46.3520  -33.0440 O.co2  39  ASP39      -0.2456
      8  OD2      -74.8330   48.5090  -33.1540 O.co2  39  ASP39      -0.2456
      9  N        -74.5090   44.9090  -30.8650 N.am   40  GLY40      -0.1942
     10  CA       -73.5290   44.1590  -30.0990 C.3    40  GLY40       0.2014
     11  C        -72.7040   45.0600  -29.1930 C.2    40  GLY40       0.2639
     12  O        -72.9710   46.2580  -29.0800 O.2    40  GLY40      -0.2714
     13  N        -71.6910   44.4820  -28.5560 N.am   41  LEU41      -0.1963
     14  CA       -70.8220   45.2040  -27.6290 C.3    41  LEU41       0.1728
     15  C        -70.1790   46.4660  -28.1990 C.2    41  LEU41       0.2616
     16  O        -70.0700   47.4830  -27.5100 O.2    41  LEU41      -0.2715
     17  CB       -69.7100   44.2740  -27.1320 C.3    41  LEU41       0.0311
     18  CG       -68.8300   44.8300  -26.0080 C.3    41  LEU41       0.0022
     19  CD1      -69.5610   44.6660  -24.6770 C.3    41  LEU41       0.0001
     20  CD2      -67.4970   44.0940  -25.9750 C.3    41  LEU41       0.0001
     21  N        -69.7470   46.3950  -29.4530 N.am   42  ARG42      -0.1977
     22  CA       -69.0840   47.5170  -30.1020 C.3    42  ARG42       0.1597
     23  C        -70.0260   48.4590  -30.8490 C.2    42  ARG42       0.2287
     24  O        -69.6430   49.0530  -31.8560 O.2    42  ARG42      -0.2864
     25  CB       -68.0100   46.9860  -31.0580 C.3    42  ARG42       0.0334
     26  CG       -66.9880   46.0860  -30.3640 C.3    42  ARG42       0.0492
     27  CD       -65.8570   45.6650  -31.2920 C.3    42  ARG42       0.2205
     28  NE       -64.9370   44.7400  -30.6310 N.pl3  42  ARG42      -0.0865
     29  CZ       -64.1600   45.0550  -29.5960 C.cat  42  ARG42       0.5346
     30  NH1      -64.1770   46.2820  -29.0900 N.pl3  42  ARG42       0.1354
     31  NH2      -63.3670   44.1350  -29.0590 N.pl3  42  ARG42       0.1354
     32  N        -73.7820   45.4740  -41.0390 N.3    53  ASN53      -0.1240
     33  CA       -73.3390   44.1510  -41.4650 C.3    53  ASN53       0.1653
     34  C        -74.3410   43.2100  -42.1200 C.2    53  ASN53       0.2266
     35  O        -73.9500   42.1470  -42.6080 O.2    53  ASN53      -0.2867
     36  CB       -72.7210   43.4370  -40.2600 C.3    53  ASN53       0.1155
     37  CG       -71.6170   44.2450  -39.6120 C.2    53  ASN53       0.2627
     38  OD1      -70.4900   44.2730  -40.1010 O.2    53  ASN53      -0.2716
     39  ND2      -71.9410   44.9230  -38.5120 N.am   53  ASN53      -0.0877
     40  N        -74.9230   47.0960  -22.5800 N.3    77  PHE77      -0.1241
     41  CA       -75.7600   45.9580  -22.2240 C.3    77  PHE77       0.1605
     42  C        -77.2270   46.3810  -22.1700 C.2    77  PHE77       0.2264
     43  O        -78.0730   45.6760  -21.6150 O.2    77  PHE77      -0.2867
     44  CB       -75.3290   45.3400  -20.8870 C.3    77  PHE77       0.0534
     45  CG       -74.1500   44.4160  -21.0080 C.ar   77  PHE77      -0.0203
     46  CD1      -72.8550   44.9230  -21.0930 C.ar   77  PHE77      -0.0042
     47  CD2      -74.3420   43.0380  -21.1040 C.ar   77  PHE77      -0.0042
     48  CE1      -71.7690   44.0720  -21.2750 C.ar   77  PHE77      -0.0003
     49  CE2      -73.2600   42.1770  -21.2870 C.ar   77  PHE77      -0.0003
     50  CZ       -71.9730   42.6920  -21.3750 C.ar   77  PHE77      -0.0000
     51  N        -74.7840   38.5380  -29.1810 N.3   125  SER125     -0.1202
     52  CA       -73.5800   38.7810  -28.3950 C.3   125  SER125      0.2020
     53  C        -74.0010   39.4990  -27.1140 C.2   125  SER125      0.2618
     54  O        -74.8420   38.9980  -26.3660 O.2   125  SER125     -0.2717
     55  CB       -72.5980   39.6420  -29.2110 C.3   125  SER125      0.2103
     56  OG       -71.3130   39.7200  -28.6060 O.3   125  SER125     -0.2182
     57  N        -73.4350   40.6790  -26.8710 N.am  126  MET126     -0.1979
     58  CA       -73.7680   41.4590  -25.6800 C.3   126  MET126      0.1605
     59  C        -75.2650   41.5360  -25.3670 C.2   126  MET126      0.2287
     60  O        -75.6870   41.2510  -24.2410 O.2   126  MET126     -0.2864
     61  CB       -73.2320   42.8950  -25.8120 C.3   126  MET126      0.0413
     62  CG       -73.7110   43.8420  -24.7010 C.3   126  MET126      0.0598
     63  SD       -73.3420   45.6050  -24.9860 S.3   126  MET126     -0.1393
     64  CE       -74.6610   46.0150  -26.1550 C.3   126  MET126      0.0692
     65  N        -74.5640   35.8130  -23.7750 N.3   151  PHE151     -0.1241
     66  CA       -73.8190   35.3600  -22.6030 C.3   151  PHE151      0.1605
     67  C        -74.9200   35.2970  -21.5630 C.2   151  PHE151      0.2264
     68  O        -75.2490   36.2850  -20.9040 O.2   151  PHE151     -0.2867
     69  CB       -72.7370   36.3840  -22.2800 C.3   151  PHE151      0.0534
     70  CG       -71.7520   36.5540  -23.3950 C.ar  151  PHE151     -0.0203
     71  CD1      -70.7230   35.6330  -23.5740 C.ar  151  PHE151     -0.0042
     72  CD2      -71.9160   37.5700  -24.3380 C.ar  151  PHE151     -0.0042
     73  CE1      -69.8720   35.7120  -24.6810 C.ar  151  PHE151     -0.0003
     74  CE2      -71.0720   37.6590  -25.4490 C.ar  151  PHE151     -0.0003
     75  CZ       -70.0490   36.7270  -25.6220 C.ar  151  PHE151     -0.0000
     76  N        -67.4910   35.0410  -15.4850 N.3   159  TRP159     -0.1241
     77  CA       -68.1740   35.9260  -16.4300 C.3   159  TRP159      0.1605
     78  C        -68.1070   37.4040  -16.0580 C.2   159  TRP159      0.2264
     79  O        -67.8480   38.2470  -16.9170 O.2   159  TRP159     -0.2867
     80  CB       -69.6300   35.4890  -16.6280 C.3   159  TRP159      0.0550
     81  CG       -69.7430   34.2630  -17.4860 C.ar  159  TRP159      0.0003
     82  CD1      -70.2480   33.0500  -17.1220 C.ar  159  TRP159      0.0946
     83  CD2      -69.2900   34.1210  -18.8380 C.ar  159  TRP159      0.0152
     84  NE1      -70.1340   32.1560  -18.1620 N.ar  159  TRP159     -0.2442
     85  CE2      -69.5500   32.7880  -19.2280 C.ar  159  TRP159      0.0810
     86  CE3      -68.6880   34.9910  -19.7580 C.ar  159  TRP159      0.0012
     87  CZ2      -69.2260   32.3010  -20.5020 C.ar  159  TRP159      0.0191
     88  CZ3      -68.3640   34.5080  -21.0230 C.ar  159  TRP159      0.0001
     89  CH2      -68.6350   33.1740  -21.3830 C.ar  159  TRP159      0.0015
     90  N        -64.7150   38.6010  -17.1050 N.3   162  LEU162     -0.1231
     91  CA       -64.5640   38.5910  -18.5550 C.3   162  LEU162      0.1693
     92  C        -65.3620   39.7170  -19.1960 C.2   162  LEU162      0.2591
     93  O        -64.9010   40.3630  -20.1400 O.2   162  LEU162     -0.2718
     94  CB       -65.0320   37.2530  -19.1250 C.3   162  LEU162      0.0284
     95  CG       -64.2380   36.0170  -18.7090 C.3   162  LEU162      0.0019
     96  CD1      -64.8080   34.8020  -19.4050 C.3   162  LEU162      0.0001
     97  CD2      -62.7860   36.1890  -19.0910 C.3   162  LEU162      0.0001
     98  N        -66.5710   39.9350  -18.6900 N.am  163  ILE163     -0.1980
     99  CA       -67.4280   40.9960  -19.2060 C.3   163  ILE163      0.1595
    100  C        -66.7810   42.3480  -18.9120 C.2   163  ILE163      0.2287
    101  O        -66.8000   43.2540  -19.7480 O.2   163  ILE163     -0.2864
    102  CB       -68.8360   40.9170  -18.5720 C.3   163  ILE163      0.0276
    103  CG1      -69.5900   39.7220  -19.1730 C.3   163  ILE163      0.0022
    104  CG2      -69.6090   42.2190  -18.8140 C.3   163  ILE163      0.0022
    105  CD1      -70.9440   39.4380  -18.5340 C.3   163  ILE163      0.0001
    106  N        -63.9980   42.8670  -21.3920 N.3   166  ALA166     -0.1245
    107  CA       -64.5030   43.0970  -22.7410 C.3   166  ALA166      0.1562
    108  C        -65.0130   44.5340  -22.8380 C.2   166  ALA166      0.2260
    109  O        -64.7920   45.2200  -23.8380 O.2   166  ALA166     -0.2867
    110  CB       -65.6260   42.1170  -23.0520 C.3   166  ALA166      0.0290
    111  N        -64.8240   32.5160  -28.6220 N.3   228  LEU228     -0.1245
    112  CA       -65.9610   33.0960  -27.9190 C.3   228  LEU228      0.1561
    113  C        -67.2390   32.2860  -28.0910 C.2   228  LEU228      0.2260
    114  O        -67.9660   32.0510  -27.1240 O.2   228  LEU228     -0.2867
    115  CB       -66.2020   34.5320  -28.3890 C.3   228  LEU228      0.0270
    116  CG       -65.2700   35.6020  -27.8210 C.3   228  LEU228      0.0019
    117  CD1      -65.5010   36.9180  -28.5530 C.3   228  LEU228      0.0001
    118  CD2      -65.5210   35.7580  -26.3200 C.3   228  LEU228      0.0001
    119  N        -68.6230   33.5700  -33.5640 N.3   261  HIS261     -0.1226
    120  CA       -69.1990   34.7980  -33.0280 C.3   261  HIS261      0.1752
    121  C        -69.1060   35.9130  -34.0710 C.2   261  HIS261      0.2597
    122  O        -68.3400   36.8630  -33.9040 O.2   261  HIS261     -0.2718
    123  CB       -68.4430   35.1980  -31.7590 C.3   261  HIS261      0.0759
    124  CG       -69.2720   35.9550  -30.7680 C.ar  261  HIS261      0.0818
    125  ND1      -70.3000   35.3730  -30.0580 N.ar  261  HIS261     -0.2268
    126  CD2      -69.2050   37.2400  -30.3490 C.ar  261  HIS261      0.1154
    127  CE1      -70.8290   36.2660  -29.2410 C.ar  261  HIS261      0.1986
    128  NE2      -70.1830   37.4070  -29.3980 N.ar  261  HIS261     -0.2212
    129  N        -69.8830   35.8010  -35.1470 N.am  262  SER262     -0.1938
    130  CA       -69.8440   36.8100  -36.2030 C.3   262  SER262      0.2055
    131  C        -71.2080   37.0700  -36.8510 C.2   262  SER262      0.2643
    132  O        -72.1280   36.2580  -36.7440 O.2   262  SER262     -0.2714
    133  CB       -68.8150   36.4090  -37.2660 C.3   262  SER262      0.2130
    134  OG       -69.0110   35.0680  -37.6760 O.3   262  SER262     -0.2179
    135  N        -71.3190   38.2060  -37.5320 N.am  263  TRP263     -0.1973
    136  CA       -72.5640   38.6320  -38.1680 C.3   263  TRP263      0.1640
    137  C        -73.2540   37.7080  -39.1710 C.2   263  TRP263      0.2290
    138  O        -74.4800   37.6030  -39.1710 O.2   263  TRP263     -0.2864
    139  CB       -72.3680   40.0160  -38.8030 C.3   263  TRP263      0.0576
    140  CG       -72.2420   41.1080  -37.7780 C.ar  263  TRP263      0.0006
    141  CD1      -71.0880   41.6630  -37.3040 C.ar  263  TRP263      0.0946
    142  CD2      -73.3130   41.7300  -37.0540 C.ar  263  TRP263      0.0152
    143  NE1      -71.3730   42.5900  -36.3300 N.ar  263  TRP263     -0.2442
    144  CE2      -72.7310   42.6500  -36.1550 C.ar  263  TRP263      0.0810
    145  CE3      -74.7080   41.5970  -37.0780 C.ar  263  TRP263      0.0012
    146  CZ2      -73.4960   43.4340  -35.2830 C.ar  263  TRP263      0.0191
    147  CZ3      -75.4720   42.3800  -36.2080 C.ar  263  TRP263      0.0001
    148  CH2      -74.8610   43.2850  -35.3240 C.ar  263  TRP263      0.0015
    149  N        -75.5580   35.4790  -37.3260 N.3   266  TRP266     -0.1241
    150  CA       -76.6600   36.1680  -36.6700 C.3   266  TRP266      0.1605
    151  C        -77.7020   36.5710  -37.7100 C.2   266  TRP266      0.2264
    152  O        -78.9020   36.5380  -37.4350 O.2   266  TRP266     -0.2867
    153  CB       -76.1430   37.3840  -35.8890 C.3   266  TRP266      0.0550
    154  CG       -75.1720   36.9770  -34.8080 C.ar  266  TRP266      0.0003
    155  CD1      -75.2200   35.8330  -34.0620 C.ar  266  TRP266      0.0946
    156  CD2      -73.9920   37.6780  -34.3870 C.ar  266  TRP266      0.0152
    157  NE1      -74.1450   35.7720  -33.2120 N.ar  266  TRP266     -0.2442
    158  CE2      -73.3740   36.8900  -33.3880 C.ar  266  TRP266      0.0810
    159  CE3      -73.3940   38.8890  -34.7590 C.ar  266  TRP266      0.0012
    160  CZ2      -72.1840   37.2750  -32.7530 C.ar  266  TRP266      0.0191
    161  CZ3      -72.2060   39.2730  -34.1290 C.ar  266  TRP266      0.0001
    162  CH2      -71.6160   38.4650  -33.1370 C.ar  266  TRP266      0.0015
@<TRIPOS>BOND
     1    35    34    2
     2    34    33    1
     3    33    32    1
     4    33    36    1
     5    36    37    1
     6    38    37    2
     7    37    39   am
     8   138   137    2
     9   137   136    1
    10   139   136    1
    11   139   140    1
    12   136   135    1
    13   140   141   ar
    14   140   142   ar
    15   151   152    2
    16   151   150    1
    17   134   133    1
    18   135   131   am
    19   149   150    1
    20   141   143   ar
    21   133   130    1
    22   145   142   ar
    23   145   147   ar
    24   142   144   ar
    25   131   132    2
    26   131   130    1
    27   150   153    1
    28   143   144   ar
    29   147   148   ar
    30   130   129    1
    31   144   146   ar
    32   153   154    1
    33   148   146   ar
    34   129   121   am
    35   154   156   ar
    36   154   155   ar
    37   159   156   ar
    38   159   161   ar
    39   156   158   ar
    40   161   162   ar
    41   121   122    2
    42   121   120    1
    43   155   157   ar
    44   119   120    1
    45   158   157   ar
    46   158   160   ar
    47     8     6   ar
    48   162   160   ar
    49     7     6   ar
    50   120   123    1
    51     6     5    1
    52    24    23    2
    53   123   124    1
    54     5     2    1
    55     2     1    1
    56     2     3    1
    57    27    28    1
    58    27    26    1
    59    25    26    1
    60    25    22    1
    61     9     3   am
    62     9    10    1
    63    23    22    1
    64   124   126   ar
    65   124   125   ar
    66    28    29    2
    67     3     4    2
    68   126   128   ar
    69    22    21    1
    70    10    11    1
    71   125   127   ar
    72    29    30    1
    73    29    31    1
    74    21    15   am
    75   128   127   ar
    76    55    56    1
    77    55    52    1
    78    11    12    2
    79    11    13   am
    80    51    52    1
    81   111   112    1
    82    13    14    1
    83   117   116    1
    84    52    53    1
    85   115   112    1
    86   115   116    1
    87    15    14    1
    88    15    16    2
    89   113   112    1
    90   113   114    2
    91   116   118    1
    92    14    17    1
    93    17    18    1
    94    53    57   am
    95    53    54    2
    96    57    58    1
    97    64    63    1
    98    18    20    1
    99    18    19    1
   100    61    58    1
   101    61    62    1
   102    58    59    1
   103    75    74   ar
   104    75    73   ar
   105    74    72   ar
   106    59    60    2
   107    63    62    1
   108    73    71   ar
   109    72    70   ar
   110   109   108    2
   111    65    66    1
   112    71    70   ar
   113    70    69    1
   114   110   107    1
   115   108   107    1
   116   107   106    1
   117    66    69    1
   118    66    67    1
   119    40    41    1
   120    41    42    1
   121    41    44    1
   122    42    43    2
   123    67    68    2
   124    89    88   ar
   125    89    87   ar
   126    50    49   ar
   127    50    48   ar
   128    49    47   ar
   129    48    46   ar
   130    47    45   ar
   131    46    45   ar
   132    88    86   ar
   133    45    44    1
   134    87    85   ar
   135    93    92    2
   136    86    83   ar
   137   101   100    2
   138    96    95    1
   139    85    83   ar
   140    85    84   ar
   141    99   100    1
   142    99    98    1
   143    99   102    1
   144    92    98   am
   145    92    91    1
   146   103   102    1
   147   103   105    1
   148    94    95    1
   149    94    91    1
   150    97    95    1
   151    83    81   ar
   152   104   102    1
   153    91    90    1
   154    84    82   ar
   155    81    82   ar
   156    81    80    1
   157    79    78    2
   158    80    77    1
   159    77    78    1
   160    77    76    1
