@<TRIPOS>MOLECULE
tmp/1va6B02.pdb
 203 196 0 0 0
SMALL
GASTEIGER

@<TRIPOS>ATOM
      1  N        -10.2130   -3.3330   33.7910 N.3   150  HIS150     -0.1241
      2  CA        -9.7710   -1.9730   33.5250 C.3   150  HIS150      0.1621
      3  C         -9.4180   -1.8490   32.0530 C.2   150  HIS150      0.2264
      4  O         -8.5590   -2.5890   31.5280 O.2   150  HIS150     -0.2867
      5  CB        -8.5580   -1.6300   34.4000 C.3   150  HIS150      0.0745
      6  CG        -8.8700   -1.5270   35.8400 C.ar  150  HIS150      0.0817
      7  ND1       -7.9200   -1.2140   36.7940 N.ar  150  HIS150     -0.2268
      8  CD2      -10.0560   -1.6690   36.4990 C.ar  150  HIS150      0.1154
      9  CE1       -8.5090   -1.1730   37.9800 C.ar  150  HIS150      0.1986
     10  NE2       -9.7910   -1.4870   37.8250 N.ar  150  HIS150     -0.2212
     11  N        -16.5540   11.6740   34.0460 N.3   184  TYR184     -0.1241
     12  CA       -17.1960   11.8890   35.3530 C.3   184  TYR184      0.1605
     13  C        -18.6610   12.2650   35.1610 C.2   184  TYR184      0.2264
     14  O        -19.5030   11.8310   35.8870 O.2   184  TYR184     -0.2867
     15  CB       -16.4380   12.9230   36.1560 C.3   184  TYR184      0.0534
     16  CG       -15.3860   12.3530   37.1040 C.ar  184  TYR184     -0.0201
     17  CD1      -15.7060   12.0140   38.4070 C.ar  184  TYR184     -0.0009
     18  CD2      -14.0960   12.1630   36.7110 C.ar  184  TYR184     -0.0009
     19  CE1      -14.7620   11.5230   39.2810 C.ar  184  TYR184      0.0417
     20  CE2      -13.1580   11.6560   37.5860 C.ar  184  TYR184      0.0417
     21  CZ       -13.5040   11.3430   38.8630 C.ar  184  TYR184      0.1957
     22  OH       -12.6110   10.8510   39.7620 O.3   184  TYR184     -0.2866
     23  N        -20.7720   -3.0270   42.7490 N.3   227  ARG227     -0.1231
     24  CA       -19.3420   -2.9280   42.8960 C.3   227  ARG227      0.1694
     25  C        -18.9420   -1.4600   42.9780 C.2   227  ARG227      0.2591
     26  O        -17.9470   -1.0920   43.6020 O.2   227  ARG227     -0.2718
     27  CB       -18.6500   -3.6080   41.7120 C.3   227  ARG227      0.0321
     28  CG       -17.1920   -3.1060   41.4680 C.3   227  ARG227      0.0489
     29  CD       -16.3430   -4.1000   40.7150 C.3   227  ARG227      0.2205
     30  NE       -15.1760   -3.4550   40.1400 N.pl3 227  ARG227     -0.0865
     31  CZ       -15.2030   -2.6040   39.1470 C.cat 227  ARG227      0.5346
     32  NH1      -16.3200   -2.3180   38.5420 N.pl3 227  ARG227      0.1354
     33  NH2      -14.0670   -2.0650   38.7150 N.pl3 227  ARG227      0.1354
     34  N        -19.7000   -0.6220   42.3040 N.am  228  LEU228     -0.1980
     35  CA       -19.4320    0.8010   42.2830 C.3   228  LEU228      0.1596
     36  C        -20.2160    1.5960   43.3660 C.2   228  LEU228      0.2287
     37  O        -20.0980    2.8190   43.4500 O.2   228  LEU228     -0.2864
     38  CB       -19.7610    1.3530   40.9020 C.3   228  LEU228      0.0297
     39  CG       -18.9430    0.7390   39.7590 C.3   228  LEU228      0.0022
     40  CD1      -19.2430    1.4880   38.4770 C.3   228  LEU228      0.0001
     41  CD2      -17.4610    0.8150   40.1020 C.3   228  LEU228      0.0001
     42  N        -16.5760   -1.5140   45.9820 N.3   233  TYR233     -0.1241
     43  CA       -15.1920   -1.0120   45.9990 C.3   233  TYR233      0.1605
     44  C        -15.2050    0.4830   46.2180 C.2   233  TYR233      0.2264
     45  O        -15.0870    1.2550   45.2560 O.2   233  TYR233     -0.2867
     46  CB       -14.4480   -1.3430   44.6950 C.3   233  TYR233      0.0534
     47  CG       -12.9410   -1.5130   44.9200 C.ar  233  TYR233     -0.0201
     48  CD1      -12.4000   -2.7310   45.2610 C.ar  233  TYR233     -0.0009
     49  CD2      -12.0480   -0.4430   44.7540 C.ar  233  TYR233     -0.0009
     50  CE1      -11.0570   -2.8800   45.4910 C.ar  233  TYR233      0.0417
     51  CE2      -10.6920   -0.5970   44.9710 C.ar  233  TYR233      0.0417
     52  CZ       -10.2010   -1.8160   45.3330 C.ar  233  TYR233      0.1957
     53  OH        -8.8190   -1.9490   45.5220 O.3   233  TYR233     -0.2866
     54  N        -14.6090    4.3750   47.4450 N.3   235  ASN235     -0.1240
     55  CA       -13.6450    5.4480   47.6300 C.3   235  ASN235      0.1653
     56  C        -14.2010    6.5390   48.5970 C.2   235  ASN235      0.2266
     57  O        -13.8870    7.7390   48.4450 O.2   235  ASN235     -0.2867
     58  CB       -13.2540    6.0290   46.2640 C.3   235  ASN235      0.1155
     59  CG       -14.4120    6.7180   45.5690 C.2   235  ASN235      0.2627
     60  OD1      -15.5240    6.8110   46.1230 O.2   235  ASN235     -0.2716
     61  ND2      -14.1520    7.2450   44.3820 N.am  235  ASN235     -0.0877
     62  N        -12.0320    8.5940   50.7730 N.3   238  GLN238     -0.1231
     63  CA       -11.2260    9.5460   49.9910 C.3   238  GLN238      0.1698
     64  C        -12.0530   10.7590   49.5150 C.2   238  GLN238      0.2592
     65  O        -11.6190   11.5240   48.6510 O.2   238  GLN238     -0.2718
     66  CB       -10.5460    8.8290   48.8040 C.3   238  GLN238      0.0381
     67  CG        -9.7950    7.5560   49.2190 C.3   238  GLN238      0.0905
     68  CD        -9.3040    6.7160   48.0190 C.2   238  GLN238      0.2608
     69  OE1       -9.2780    7.1980   46.8890 O.2   238  GLN238     -0.2717
     70  NE2       -8.9380    5.4590   48.2850 N.am  238  GLN238     -0.0878
     71  N        -13.2160   10.9340   50.1340 N.am  239  SER239     -0.1952
     72  CA       -14.2010   11.9640   49.7660 C.3   239  SER239      0.1924
     73  C        -13.6950   13.4310   49.8290 C.2   239  SER239      0.2314
     74  O        -14.1030   14.2590   49.0090 O.2   239  SER239     -0.2863
     75  CB       -15.4860   11.7910   50.6430 C.3   239  SER239      0.2116
     76  OG       -15.2820   12.0920   51.9810 O.3   239  SER239     -0.2180
     77  N         -9.4860   16.6320   45.0620 N.3   243  ILE243     -0.1245
     78  CA        -8.6710   16.4640   43.8480 C.3   243  ILE243      0.1561
     79  C         -9.4820   16.9070   42.6370 C.2   243  ILE243      0.2260
     80  O        -10.6300   16.5360   42.5080 O.2   243  ILE243     -0.2867
     81  CB        -8.1850   15.0050   43.7090 C.3   243  ILE243      0.0252
     82  CG1       -6.9410   14.7610   44.5740 C.3   243  ILE243      0.0019
     83  CG2       -7.7910   14.6910   42.2740 C.3   243  ILE243      0.0019
     84  CD1       -6.9150   13.3970   45.1960 C.3   243  ILE243      0.0001
     85  N         -9.5860   17.9900   38.1370 N.3   245  PHE245     -0.1241
     86  CA        -9.1150   17.5640   36.8290 C.3   245  PHE245      0.1605
     87  C         -9.1210   18.6930   35.8130 C.2   245  PHE245      0.2264
     88  O         -9.6230   18.5400   34.6960 O.2   245  PHE245     -0.2867
     89  CB        -9.9830   16.4180   36.3040 C.3   245  PHE245      0.0534
     90  CG        -9.9530   15.1780   37.1560 C.ar  245  PHE245     -0.0203
     91  CD1       -8.8220   14.3870   37.2360 C.ar  245  PHE245     -0.0042
     92  CD2      -11.0550   14.7900   37.8550 C.ar  245  PHE245     -0.0042
     93  CE1       -8.8020   13.2510   38.0340 C.ar  245  PHE245     -0.0003
     94  CE2      -11.0370   13.6320   38.6510 C.ar  245  PHE245     -0.0003
     95  CZ        -9.8920   12.8750   38.7310 C.ar  245  PHE245     -0.0000
     96  N         -5.4330    5.6830   44.9890 N.3   291  LEU291     -0.1231
     97  CA        -6.4920    6.6000   44.5200 C.3   291  LEU291      0.1693
     98  C         -7.5880    5.8290   43.7510 C.2   291  LEU291      0.2592
     99  O         -7.3880    5.3490   42.6190 O.2   291  LEU291     -0.2718
    100  CB        -5.9180    7.7190   43.6620 C.3   291  LEU291      0.0284
    101  CG        -7.0220    8.7040   43.2610 C.3   291  LEU291      0.0019
    102  CD1       -7.5220    9.4860   44.4560 C.3   291  LEU291      0.0001
    103  CD2       -6.5240    9.6330   42.1410 C.3   291  LEU291      0.0001
    104  N         -8.7200    5.6620   44.4000 N.am  292  TYR292     -0.1962
    105  CA        -9.7950    4.8120   43.8960 C.3   292  TYR292      0.1771
    106  C        -10.8290    5.5900   43.1110 C.2   292  TYR292      0.2619
    107  O        -12.0240    5.4940   43.3650 O.2   292  TYR292     -0.2715
    108  CB       -10.4760    4.0380   45.0320 C.3   292  TYR292      0.0574
    109  CG        -9.5710    2.9720   45.6130 C.ar  292  TYR292     -0.0198
    110  CD1       -8.4040    2.5410   44.9180 C.ar  292  TYR292     -0.0009
    111  CD2       -9.8720    2.3630   46.8180 C.ar  292  TYR292     -0.0009
    112  CE1       -7.5710    1.5600   45.4540 C.ar  292  TYR292      0.0417
    113  CE2       -9.0370    1.3900   47.3630 C.ar  292  TYR292      0.0417
    114  CZ        -7.8740    1.0070   46.6940 C.ar  292  TYR292      0.1957
    115  OH        -7.0470    0.0430   47.2590 O.3   292  TYR292     -0.2866
    116  N        -10.3570    6.3660   42.1520 N.am  293  ALA293     -0.1964
    117  CA       -11.2640    7.0270   41.2310 C.3   293  ALA293      0.1713
    118  C        -11.7610    6.0340   40.1550 C.2   293  ALA293      0.2458
    119  O        -11.1830    4.9720   40.0090 O.2   293  ALA293     -0.2730
    120  CB       -10.5680    8.1890   40.5940 C.3   293  ALA293      0.0333
    121  N        -12.8390    6.3690   39.4500 N.am  294  PRO294     -0.2727
    122  CA       -13.3530    5.5350   38.3530 C.3   294  PRO294      0.1402
    123  C        -12.5860    5.6770   37.0390 C.2   294  PRO294      0.2269
    124  O        -12.7790    4.8920   36.1380 O.2   294  PRO294     -0.2865
    125  CB       -14.7840    6.0270   38.1770 C.3   294  PRO294      0.0296
    126  CG       -14.7610    7.4490   38.6400 C.3   294  PRO294      0.0237
    127  CD       -13.6930    7.5470   39.6980 C.3   294  PRO294      0.0939
    128  N        -11.7970    2.4820   34.8940 N.3   322  ARG322     -0.1231
    129  CA       -11.8410    1.5140   36.0010 C.3   322  ARG322      0.1694
    130  C        -13.1950    1.0110   36.4090 C.2   322  ARG322      0.2592
    131  O        -13.2940    0.1770   37.2930 O.2   322  ARG322     -0.2718
    132  CB       -11.1720    2.1080   37.2200 C.3   322  ARG322      0.0321
    133  CG        -9.6600    2.2170   37.0470 C.3   322  ARG322      0.0489
    134  CD        -8.9860    3.0060   38.1370 C.3   322  ARG322      0.2205
    135  NE        -9.2140    2.5390   39.5180 N.pl3 322  ARG322     -0.0865
    136  CZ        -8.4550    1.6670   40.1560 C.cat 322  ARG322      0.5346
    137  NH1       -7.3960    1.1180   39.5590 N.pl3 322  ARG322      0.1354
    138  NH2       -8.7440    1.3440   41.4030 N.pl3 322  ARG322      0.1354
    139  N        -14.2270    1.4480   35.7190 N.am  323  SER323     -0.1952
    140  CA       -15.5750    1.2080   36.1640 C.3   323  SER323      0.1924
    141  C        -16.2310   -0.0280   35.5610 C.2   323  SER323      0.2314
    142  O        -17.3760   -0.3130   35.8590 O.2   323  SER323     -0.2863
    143  CB       -16.4110    2.4680   35.9210 C.3   323  SER323      0.2116
    144  OG       -16.7230    2.5710   34.5440 O.3   323  SER323     -0.2180
    145  N        -14.0150   20.9230   42.7060 N.3   359  SER359     -0.1217
    146  CA       -14.0720   19.6700   43.4760 C.3   359  SER359      0.1889
    147  C        -15.4860   19.2090   43.9000 C.2   359  SER359      0.2288
    148  O        -15.7660   18.0010   43.9250 O.2   359  SER359     -0.2866
    149  CB       -13.2450   19.7940   44.7560 C.3   359  SER359      0.2089
    150  OG       -13.2790   18.5890   45.5000 O.3   359  SER359     -0.2183
    151  N        -17.5690   18.0980   40.8660 N.3   362  LEU362     -0.1231
    152  CA       -17.1900   16.7330   40.5280 C.3   362  LEU362      0.1693
    153  C        -17.9330   15.7960   41.4610 C.2   362  LEU362      0.2591
    154  O        -18.4770   14.7870   41.0280 O.2   362  LEU362     -0.2718
    155  CB       -15.6570   16.4700   40.6630 C.3   362  LEU362      0.0284
    156  CG       -14.6040   17.0520   39.7000 C.3   362  LEU362      0.0019
    157  CD1      -13.2180   16.6250   40.1230 C.3   362  LEU362      0.0001
    158  CD2      -14.8170   16.6920   38.2440 C.3   362  LEU362      0.0001
    159  N        -17.9640   16.1690   42.7330 N.am  363  ALA363     -0.1980
    160  CA       -18.7110   15.4140   43.7290 C.3   363  ALA363      0.1597
    161  C        -20.1990   15.3250   43.3580 C.2   363  ALA363      0.2287
    162  O        -20.8500   14.3810   43.7630 O.2   363  ALA363     -0.2864
    163  CB       -18.5350   16.0350   45.1240 C.3   363  ALA363      0.0319
    164  N        -21.4570   15.0840   40.1470 N.3   365  THR365     -0.1203
    165  CA       -21.6760   14.1710   39.0020 C.3   365  THR365      0.1994
    166  C        -22.1290   12.8090   39.4860 C.2   365  THR365      0.2617
    167  O        -22.7460   12.0630   38.7480 O.2   365  THR365     -0.2717
    168  CB       -20.4170   13.9460   38.1290 C.3   365  THR365      0.1784
    169  OG1      -19.3200   13.5310   38.9550 O.3   365  THR365     -0.2211
    170  CG2      -20.0370   15.2310   37.4000 C.3   365  THR365      0.0376
    171  N        -21.7990   12.4980   40.7320 N.am  366  ARG366     -0.1979
    172  CA       -22.0900   11.2100   41.3250 C.3   366  ARG366      0.1597
    173  C        -23.5890   10.8980   41.5620 C.2   366  ARG366      0.2287
    174  O        -23.9430    9.7400   41.7820 O.2   366  ARG366     -0.2864
    175  CB       -21.3750   11.1140   42.6630 C.3   366  ARG366      0.0334
    176  CG       -21.4370    9.7470   43.3570 C.3   366  ARG366      0.0492
    177  CD       -20.1420    9.4110   44.1010 C.3   366  ARG366      0.2205
    178  NE       -19.9770    7.9950   44.4200 N.pl3 366  ARG366     -0.0865
    179  CZ       -18.8610    7.4850   44.9560 C.cat 366  ARG366      0.5346
    180  NH1      -17.8350    8.2820   45.2230 N.pl3 366  ARG366      0.1354
    181  NH2      -18.7720    6.1890   45.2480 N.pl3 366  ARG366      0.1354
    182  N        -24.6980    8.8480   38.6050 N.3   369  TRP369     -0.1241
    183  CA       -24.0910    7.5200   38.7730 C.3   369  TRP369      0.1605
    184  C        -24.8650    6.6630   39.7890 C.2   369  TRP369      0.2264
    185  O        -25.2230    5.5340   39.5160 O.2   369  TRP369     -0.2867
    186  CB       -22.6430    7.6320   39.2470 C.3   369  TRP369      0.0550
    187  CG       -21.6830    8.0500   38.1830 C.ar  369  TRP369      0.0003
    188  CD1      -21.4840    9.2970   37.7080 C.ar  369  TRP369      0.0946
    189  CD2      -20.7900    7.2040   37.4690 C.ar  369  TRP369      0.0152
    190  NE1      -20.5210    9.2880   36.7390 N.ar  369  TRP369     -0.2442
    191  CE2      -20.0920    8.0040   36.5610 C.ar  369  TRP369      0.0810
    192  CE3      -20.5350    5.8290   37.4840 C.ar  369  TRP369      0.0012
    193  CZ2      -19.0950    7.4910   35.6970 C.ar  369  TRP369      0.0191
    194  CZ3      -19.5560    5.3190   36.5860 C.ar  369  TRP369      0.0001
    195  CH2      -18.8580    6.1560   35.7430 C.ar  369  TRP369      0.0015
    196  N        -26.4910    3.1690   39.2500 N.3   373  ILE373     -0.1245
    197  CA       -25.8960    2.0780   40.0160 C.3   373  ILE373      0.1561
    198  C        -26.9420    1.3270   40.8200 C.2   373  ILE373      0.2260
    199  O        -27.0350    0.1010   40.7850 O.2   373  ILE373     -0.2867
    200  CB       -24.8460    2.6640   40.9830 C.3   373  ILE373      0.0252
    201  CG1      -23.5550    3.0310   40.2480 C.3   373  ILE373      0.0019
    202  CG2      -24.5550    1.6820   42.0790 C.3   373  ILE373      0.0019
    203  CD1      -22.6970    4.0490   41.0030 C.3   373  ILE373      0.0001
@<TRIPOS>BOND
     1     4     3    2
     2     3     2    1
     3     2     1    1
     4     2     5    1
     5    11    12    1
     6     5     6    1
     7   144   143    1
     8    88    87    2
     9   128   129    1
    10    13    12    1
    11    13    14    2
    12    12    15    1
    13   141   142    2
    14   141   140    1
    15   193   195   ar
    16   193   191   ar
    17   139   140    1
    18   139   130   am
    19   195   194   ar
    20    87    86    1
    21     6     8   ar
    22     6     7   ar
    23   143   140    1
    24   129   130    1
    25   129   132    1
    26   124   123    2
    27    15    16    1
    28    89    86    1
    29    89    90    1
    30   130   131    2
    31     8    10   ar
    32   191   190   ar
    33   191   189   ar
    34   194   192   ar
    35    18    16   ar
    36    18    20   ar
    37   190   188   ar
    38     7     9   ar
    39    86    85    1
    40   123   122    1
    41   133   132    1
    42   133   134    1
    43    16    17   ar
    44    90    91   ar
    45    90    92   ar
    46    91    93   ar
    47   170   168    1
    48   189   192   ar
    49   189   187   ar
    50    20    21   ar
    51   188   187   ar
    52    10     9   ar
    53    92    94   ar
    54    93    95   ar
    55   168   169    1
    56   168   165    1
    57   134   135    1
    58   125   122    1
    59   125   126    1
    60   187   186    1
    61   158   156    1
    62   122   121    1
    63    17    19   ar
    64    40    39    1
    65    32    31    1
    66   182   183    1
    67   126   127    1
    68    94    95   ar
    69    33    31    1
    70   167   166    2
    71   183   186    1
    72   183   184    1
    73    21    19   ar
    74    21    22    1
    75   165   166    1
    76   165   164    1
    77    31    30    2
    78   196   197    1
    79   121   127    1
    80   121   118   am
    81   166   171   am
    82   185   184    2
    83   135   136    2
    84   137   136    1
    85   156   157    1
    86   156   155    1
    87    39    41    1
    88    39    38    1
    89   119   118    2
    90   197   198    1
    91   197   200    1
    92    30    29    1
    93   118   117    1
    94   136   138    1
    95   201   200    1
    96   201   203    1
    97   152   155    1
    98   152   151    1
    99   152   153    1
   100   120   117    1
   101    29    28    1
   102   171   172    1
   103   199   198    2
   104    38    35    1
   105   200   202    1
   106   154   153    2
   107   117   116    1
   108   172   173    1
   109   172   175    1
   110   153   159   am
   111    28    27    1
   112   173   174    2
   113    27    24    1
   114   103   101    1
   115   116   106   am
   116    83    81    1
   117    35    34    1
   118    35    36    1
   119    34    25   am
   120    80    79    2
   121    99    98    2
   122    79    78    1
   123   175   176    1
   124   145   146    1
   125   159   160    1
   126    23    24    1
   127    24    25    1
   128    25    26    2
   129   106   107    2
   130   106   105    1
   131   101   100    1
   132   101   102    1
   133   176   177    1
   134   161   160    1
   135   161   162    2
   136    36    37    2
   137   146   147    1
   138   146   149    1
   139   100    97    1
   140    81    78    1
   141    81    82    1
   142   160   163    1
   143    98   104   am
   144    98    97    1
   145    78    77    1
   146   105   104    1
   147   105   108    1
   148   147   148    2
   149   177   178    1
   150    61    59   am
   151   178   179    2
   152    97    96    1
   153    82    84    1
   154    46    47    1
   155    46    43    1
   156    49    47   ar
   157    49    51   ar
   158   149   150    1
   159   110   112   ar
   160   110   109   ar
   161    47    48   ar
   162   179   180    1
   163   179   181    1
   164    51    52   ar
   165   108   109    1
   166    45    44    2
   167    48    50   ar
   168    52    50   ar
   169    52    53    1
   170   112   114   ar
   171    59    60    2
   172    59    58    1
   173   109   111   ar
   174    42    43    1
   175    43    44    1
   176    58    55    1
   177   114   115    1
   178   114   113   ar
   179   111   113   ar
   180    69    68    2
   181    54    55    1
   182    55    56    1
   183    68    70   am
   184    68    67    1
   185    57    56    2
   186    65    64    2
   187    66    67    1
   188    66    63    1
   189    74    73    2
   190    64    63    1
   191    64    71   am
   192    72    73    1
   193    72    71    1
   194    72    75    1
   195    63    62    1
   196    75    76    1
