@<TRIPOS>MOLECULE
tmp/1va6B00.pdb
 205 192 0 0 0
SMALL
GASTEIGER

@<TRIPOS>ATOM
      1  N         -6.8240   -4.9210   31.6290 N.3    27  GLU27      -0.1245
      2  CA        -6.5210   -5.5200   32.8890 C.3    27  GLU27       0.1567
      3  C         -7.7680   -6.3010   33.2790 C.2    27  GLU27       0.2260
      4  O         -8.8740   -5.7420   33.3030 O.2    27  GLU27      -0.2867
      5  CB        -6.2970   -4.5080   33.9900 C.3    27  GLU27       0.0388
      6  CG        -4.9980   -3.7390   33.9470 C.3    27  GLU27       0.1160
      7  CD        -5.0240   -2.5770   34.9020 C.2    27  GLU27       0.3649
      8  OE1       -4.7370   -2.7800   36.1100 O.co2  27  GLU27      -0.2457
      9  OE2       -5.3200   -1.4480   34.4550 O.co2  27  GLU27      -0.2457
     10  N         -9.1040   -8.9420   36.4070 N.3    29  GLU29      -0.1245
     11  CA        -8.8860   -9.5990   37.6930 C.3    29  GLU29       0.1567
     12  C         -9.8810  -10.7450   37.9310 C.2    29  GLU29       0.2260
     13  O        -11.0240  -10.7090   37.4620 O.2    29  GLU29      -0.2867
     14  CB        -9.0950   -8.5900   38.8540 C.3    29  GLU29       0.0388
     15  CG        -7.9690   -7.5770   38.9950 C.3    29  GLU29       0.1160
     16  CD        -8.3700   -6.3310   39.7150 C.2    29  GLU29       0.3649
     17  OE1       -9.5950   -6.1130   39.9540 O.co2  29  GLU29      -0.2457
     18  OE2       -7.4880   -5.5340   40.0670 O.co2  29  GLU29      -0.2457
     19  N         -3.0930   -9.3520   42.1850 N.3    60  ASP60      -0.1225
     20  CA        -3.5370   -8.0460   42.6210 C.3    60  ASP60       0.1805
     21  C         -3.4560   -8.0350   44.2210 C.2    60  ASP60       0.2597
     22  O         -2.4000   -8.3170   44.8070 O.2    60  ASP60      -0.2718
     23  CB        -4.9520   -7.8100   42.0970 C.3    60  ASP60       0.1424
     24  CG        -5.4140   -6.3680   42.2660 C.2    60  ASP60       0.3668
     25  OD1       -4.9460   -5.5190   41.4720 O.co2  60  ASP60      -0.2456
     26  OD2       -6.2120   -5.9920   43.1510 O.co2  60  ASP60      -0.2456
     27  N         -4.5280   -7.6670   44.8680 N.am   61  PHE61      -0.1976
     28  CA        -4.5200   -7.5040   46.3350 C.3    61  PHE61       0.1639
     29  C         -4.1740   -8.8120   47.0280 C.2    61  PHE61       0.2290
     30  O         -3.2460   -8.8920   47.8310 O.2    61  PHE61      -0.2864
     31  CB        -5.8660   -7.0320   46.8170 C.3    61  PHE61       0.0560
     32  CG        -6.0660   -7.1780   48.3370 C.ar   61  PHE61      -0.0200
     33  CD1       -5.5470   -6.2310   49.2000 C.ar   61  PHE61      -0.0042
     34  CD2       -6.7110   -8.2650   48.8630 C.ar   61  PHE61      -0.0042
     35  CE1       -5.7020   -6.3310   50.5750 C.ar   61  PHE61      -0.0003
     36  CE2       -6.8740   -8.3760   50.2870 C.ar   61  PHE61      -0.0003
     37  CZ        -6.3550   -7.4090   51.1030 C.ar   61  PHE61      -0.0000
     38  N         -5.8690  -13.7420   44.0410 N.3    65  LEU65      -0.1245
     39  CA        -6.5020  -12.8070   43.1390 C.3    65  LEU65       0.1561
     40  C         -5.6090  -12.5700   41.8750 C.2    65  LEU65       0.2260
     41  O         -4.7480  -11.6850   41.8380 O.2    65  LEU65      -0.2867
     42  CB        -6.7890  -11.4690   43.8110 C.3    65  LEU65       0.0270
     43  CG        -7.5200  -10.4250   42.9760 C.3    65  LEU65       0.0019
     44  CD1       -8.7810  -11.0250   42.4260 C.3    65  LEU65       0.0001
     45  CD2       -7.8010   -9.1590   43.7920 C.3    65  LEU65       0.0001
     46  N         -4.4310  -11.4970   38.1530 N.3    67  GLU67      -0.1245
     47  CA        -4.6430  -10.3760   37.2110 C.3    67  GLU67       0.1567
     48  C         -3.9300  -10.5680   35.8880 C.2    67  GLU67       0.2260
     49  O         -2.7310  -10.7900   35.8330 O.2    67  GLU67      -0.2867
     50  CB        -4.2260   -9.0510   37.8190 C.3    67  GLU67       0.0388
     51  CG        -4.5260   -7.8680   36.9440 C.3    67  GLU67       0.1160
     52  CD        -4.3870   -6.5290   37.6290 C.2    67  GLU67       0.3649
     53  OE1       -4.7290   -6.3940   38.8280 O.co2  67  GLU67      -0.2457
     54  OE2       -3.9670   -5.5770   36.9070 O.co2  67  GLU67      -0.2457
     55  N          1.7890   -2.7130   51.5120 N.3   131  TYR131     -0.1227
     56  CA         0.8120   -1.7720   50.9900 C.3   131  TYR131      0.1736
     57  C         -0.5250   -2.4520   51.1030 C.2   131  TYR131      0.2595
     58  O         -1.5260   -1.8190   51.4690 O.2   131  TYR131     -0.2718
     59  CB         1.1170   -1.3980   49.5230 C.3   131  TYR131      0.0548
     60  CG        -0.0190   -0.6780   48.8280 C.ar  131  TYR131     -0.0200
     61  CD1       -0.5030    0.5070   49.3030 C.ar  131  TYR131     -0.0009
     62  CD2       -0.5410   -1.1600   47.6200 C.ar  131  TYR131     -0.0009
     63  CE1       -1.5590    1.1630   48.6800 C.ar  131  TYR131      0.0417
     64  CE2       -1.6060   -0.4900   46.9730 C.ar  131  TYR131      0.0417
     65  CZ        -2.1060    0.6650   47.5240 C.ar  131  TYR131      0.1957
     66  OH        -3.1280    1.3450   46.9200 O.3   131  TYR131     -0.2866
     67  N         -0.5380   -3.7530   50.7960 N.am  132  ARG132     -0.1980
     68  CA        -1.7970   -4.5120   50.8250 C.3   132  ARG132      0.1597
     69  C         -2.2080   -4.8260   52.2800 C.2   132  ARG132      0.2287
     70  O         -3.4100   -4.8690   52.5810 O.2   132  ARG132     -0.2864
     71  CB        -1.7160   -5.8030   49.9980 C.3   132  ARG132      0.0334
     72  CG        -1.3690   -5.5660   48.4760 C.3   132  ARG132      0.0492
     73  CD        -0.8170   -6.7890   47.7760 C.3   132  ARG132      0.2205
     74  NE        -0.8730   -6.6870   46.3040 N.pl3 132  ARG132     -0.0865
     75  CZ        -0.3600   -5.6970   45.5860 C.cat 132  ARG132      0.5346
     76  NH1        0.2900   -4.6890   46.1510 N.pl3 132  ARG132      0.1354
     77  NH2       -0.5160   -5.7150   44.2830 N.pl3 132  ARG132      0.1354
     78  N         -3.8980   -2.0140   53.1770 N.3   135  LEU135     -0.1245
     79  CA        -5.2380   -1.9640   52.5830 C.3   135  LEU135      0.1561
     80  C         -6.2300   -2.7430   53.3940 C.2   135  LEU135      0.2260
     81  O         -7.3760   -2.2950   53.5970 O.2   135  LEU135     -0.2867
     82  CB        -5.2420   -2.5250   51.1300 C.3   135  LEU135      0.0270
     83  CG        -4.4710   -1.6560   50.1320 C.3   135  LEU135      0.0019
     84  CD1       -4.4870   -2.2220   48.7010 C.3   135  LEU135      0.0001
     85  CD2       -5.0170   -0.2200   50.1650 C.3   135  LEU135      0.0001
     86  N        -11.4400   -5.7830   49.0800 N.3   144  GLN144     -0.1245
     87  CA       -10.2740   -5.8270   48.2020 C.3   144  GLN144      0.1566
     88  C        -10.1690   -7.1180   47.3650 C.2   144  GLN144      0.2260
     89  O         -9.2380   -7.2750   46.5700 O.2   144  GLN144     -0.2867
     90  CB        -9.0220   -5.5750   49.0330 C.3   144  GLN144      0.0367
     91  CG        -8.9480   -4.1780   49.6040 C.3   144  GLN144      0.0905
     92  CD        -8.4530   -3.1630   48.6100 C.2   144  GLN144      0.2608
     93  OE1       -7.9300   -3.5300   47.5490 O.2   144  GLN144     -0.2717
     94  NE2       -8.6060   -1.8970   48.9450 N.am  144  GLN144     -0.0878
     95  N        -12.8920   -7.9780   45.6280 N.3   146  ILE146     -0.1231
     96  CA       -13.7730   -7.6380   44.5050 C.3   146  ILE146      0.1692
     97  C        -12.9160   -7.4140   43.2220 C.2   146  ILE146      0.2593
     98  O        -11.8960   -6.7390   43.2520 O.2   146  ILE146     -0.2718
     99  CB       -14.5380   -6.3770   44.8020 C.3   146  ILE146      0.0266
    100  CG1      -15.5630   -6.6060   45.9720 C.3   146  ILE146      0.0019
    101  CG2      -15.2450   -5.8280   43.6010 C.3   146  ILE146      0.0020
    102  CD1      -15.9960   -5.3290   46.5000 C.3   146  ILE146      0.0001
    103  N        -13.3480   -8.0080   42.1330 N.am  147  SER147     -0.1938
    104  CA       -12.5660   -7.9900   40.8910 C.3   147  SER147      0.2055
    105  C        -13.2330   -7.1070   39.8250 C.2   147  SER147      0.2643
    106  O        -14.4540   -6.8960   39.8150 O.2   147  SER147     -0.2714
    107  CB       -12.3340   -9.4050   40.3710 C.3   147  SER147      0.2130
    108  OG       -13.5700  -10.0480   40.1270 O.3   147  SER147     -0.2179
    109  N        -12.4270   -6.5800   38.9360 N.am  148  GLY148     -0.1954
    110  CA       -12.9280   -5.7470   37.8460 C.3   148  GLY148      0.1869
    111  C        -12.0760   -5.8100   36.6210 C.2   148  GLY148      0.2309
    112  O        -10.9810   -6.3720   36.6190 O.2   148  GLY148     -0.2863
    113  N        -10.2130   -3.3330   33.7910 N.3   150  HIS150     -0.1241
    114  CA        -9.7710   -1.9730   33.5250 C.3   150  HIS150      0.1621
    115  C         -9.4180   -1.8490   32.0530 C.2   150  HIS150      0.2264
    116  O         -8.5590   -2.5890   31.5280 O.2   150  HIS150     -0.2867
    117  CB        -8.5580   -1.6300   34.4000 C.3   150  HIS150      0.0745
    118  CG        -8.8700   -1.5270   35.8400 C.ar  150  HIS150      0.0817
    119  ND1       -7.9200   -1.2140   36.7940 N.ar  150  HIS150     -0.2268
    120  CD2      -10.0560   -1.6690   36.4990 C.ar  150  HIS150      0.1154
    121  CE1       -8.5090   -1.1730   37.9800 C.ar  150  HIS150      0.1986
    122  NE2       -9.7910   -1.4870   37.8250 N.ar  150  HIS150     -0.2212
    123  N        -20.7720   -3.0270   42.7490 N.3   227  ARG227     -0.1245
    124  CA       -19.3420   -2.9280   42.8960 C.3   227  ARG227      0.1563
    125  C        -18.9420   -1.4600   42.9780 C.2   227  ARG227      0.2260
    126  O        -17.9470   -1.0920   43.6020 O.2   227  ARG227     -0.2867
    127  CB       -18.6500   -3.6080   41.7120 C.3   227  ARG227      0.0307
    128  CG       -17.1920   -3.1060   41.4680 C.3   227  ARG227      0.0489
    129  CD       -16.3430   -4.1000   40.7150 C.3   227  ARG227      0.2205
    130  NE       -15.1760   -3.4550   40.1400 N.pl3 227  ARG227     -0.0865
    131  CZ       -15.2030   -2.6040   39.1470 C.cat 227  ARG227      0.5346
    132  NH1      -16.3200   -2.3180   38.5420 N.pl3 227  ARG227      0.1354
    133  NH2      -14.0670   -2.0650   38.7150 N.pl3 227  ARG227      0.1354
    134  N        -16.5760   -1.5140   45.9820 N.3   233  TYR233     -0.1241
    135  CA       -15.1920   -1.0120   45.9990 C.3   233  TYR233      0.1605
    136  C        -15.2050    0.4830   46.2180 C.2   233  TYR233      0.2264
    137  O        -15.0870    1.2550   45.2560 O.2   233  TYR233     -0.2867
    138  CB       -14.4480   -1.3430   44.6950 C.3   233  TYR233      0.0534
    139  CG       -12.9410   -1.5130   44.9200 C.ar  233  TYR233     -0.0201
    140  CD1      -12.4000   -2.7310   45.2610 C.ar  233  TYR233     -0.0009
    141  CD2      -12.0480   -0.4430   44.7540 C.ar  233  TYR233     -0.0009
    142  CE1      -11.0570   -2.8800   45.4910 C.ar  233  TYR233      0.0417
    143  CE2      -10.6920   -0.5970   44.9710 C.ar  233  TYR233      0.0417
    144  CZ       -10.2010   -1.8160   45.3330 C.ar  233  TYR233      0.1957
    145  OH        -8.8190   -1.9490   45.5220 O.3   233  TYR233     -0.2866
    146  N         -1.2170    4.7280   44.0550 N.3   289  ASN289     -0.1240
    147  CA        -1.9870    3.5490   43.6610 C.3   289  ASN289      0.1653
    148  C         -3.3210    3.4510   44.3900 C.2   289  ASN289      0.2266
    149  O         -4.2580    2.8080   43.9150 O.2   289  ASN289     -0.2867
    150  CB        -1.2120    2.2820   43.9710 C.3   289  ASN289      0.1155
    151  CG         0.0550    2.1700   43.1850 C.2   289  ASN289      0.2627
    152  OD1        0.7860    3.1610   43.0360 O.2   289  ASN289     -0.2716
    153  ND2        0.3420    0.9570   42.6680 N.am  289  ASN289     -0.0877
    154  N         -8.7200    5.6620   44.4000 N.3   292  TYR292     -0.1241
    155  CA        -9.7950    4.8120   43.8960 C.3   292  TYR292      0.1605
    156  C        -10.8290    5.5900   43.1110 C.2   292  TYR292      0.2264
    157  O        -12.0240    5.4940   43.3650 O.2   292  TYR292     -0.2867
    158  CB       -10.4760    4.0380   45.0320 C.3   292  TYR292      0.0534
    159  CG        -9.5710    2.9720   45.6130 C.ar  292  TYR292     -0.0201
    160  CD1       -8.4040    2.5410   44.9180 C.ar  292  TYR292     -0.0009
    161  CD2       -9.8720    2.3630   46.8180 C.ar  292  TYR292     -0.0009
    162  CE1       -7.5710    1.5600   45.4540 C.ar  292  TYR292      0.0417
    163  CE2       -9.0370    1.3900   47.3630 C.ar  292  TYR292      0.0417
    164  CZ        -7.8740    1.0070   46.6940 C.ar  292  TYR292      0.1957
    165  OH        -7.0470    0.0430   47.2590 O.3   292  TYR292     -0.2866
    166  N         -8.4440    7.3010   35.7640 N.3   296  ARG296     -0.1245
    167  CA        -7.1860    7.9100   36.2010 C.3   296  ARG296      0.1563
    168  C         -6.2180    8.2890   35.0890 C.2   296  ARG296      0.2260
    169  O         -6.0000    7.5270   34.1550 O.2   296  ARG296     -0.2867
    170  CB        -6.4550    6.9850   37.1620 C.3   296  ARG296      0.0307
    171  CG        -7.2660    6.4660   38.3100 C.3   296  ARG296      0.0489
    172  CD        -6.4040    5.9490   39.4590 C.3   296  ARG296      0.2205
    173  NE        -5.8320    4.6580   39.1490 N.pl3 296  ARG296     -0.0865
    174  CZ        -5.4090    3.7660   40.0310 C.cat 296  ARG296      0.5346
    175  NH1       -5.4900    4.0100   41.3290 N.pl3 296  ARG296      0.1354
    176  NH2       -4.8780    2.6160   39.6050 N.pl3 296  ARG296      0.1354
    177  N         -2.6350    8.7340   33.5030 N.3   298  LYS298     -0.1245
    178  CA        -1.4430    7.9020   33.7190 C.3   298  LYS298      0.1561
    179  C         -0.2820    8.1040   32.7610 C.2   298  LYS298      0.2260
    180  O         -0.4300    8.6730   31.6920 O.2   298  LYS298     -0.2867
    181  CB        -1.8200    6.4360   33.6290 C.3   298  LYS298      0.0271
    182  CG        -2.6690    5.8850   34.7920 C.3   298  LYS298      0.0035
    183  CD        -2.3240    4.4400   35.0370 C.3   298  LYS298      0.0206
    184  CE        -2.1710    4.1450   36.4820 C.3   298  LYS298      0.1093
    185  NZ        -2.9110    2.9300   36.7880 N.3   298  LYS298     -0.1314
    186  N         -6.9170    5.4390   32.2110 N.3   320  GLU320     -0.1245
    187  CA        -7.2940    4.1380   32.7320 C.3   320  GLU320      0.1567
    188  C         -8.7440    4.1560   33.2610 C.2   320  GLU320      0.2260
    189  O         -9.0570    4.7450   34.2880 O.2   320  GLU320     -0.2867
    190  CB        -6.3360    3.6970   33.8500 C.3   320  GLU320      0.0388
    191  CG        -6.8110    2.4710   34.6270 C.3   320  GLU320      0.1160
    192  CD        -6.0880    2.3090   35.9700 C.2   320  GLU320      0.3649
    193  OE1       -5.5390    3.3140   36.4970 O.co2 320  GLU320     -0.2457
    194  OE2       -6.0690    1.1840   36.5130 O.co2 320  GLU320     -0.2457
    195  N        -11.7970    2.4820   34.8940 N.3   322  ARG322     -0.1245
    196  CA       -11.8410    1.5140   36.0010 C.3   322  ARG322      0.1563
    197  C        -13.1950    1.0110   36.4090 C.2   322  ARG322      0.2260
    198  O        -13.2940    0.1770   37.2930 O.2   322  ARG322     -0.2867
    199  CB       -11.1720    2.1080   37.2200 C.3   322  ARG322      0.0307
    200  CG        -9.6600    2.2170   37.0470 C.3   322  ARG322      0.0489
    201  CD        -8.9860    3.0060   38.1370 C.3   322  ARG322      0.2205
    202  NE        -9.2140    2.5390   39.5180 N.pl3 322  ARG322     -0.0865
    203  CZ        -8.4550    1.6670   40.1560 C.cat 322  ARG322      0.5346
    204  NH1       -7.3960    1.1180   39.5590 N.pl3 322  ARG322      0.1354
    205  NH2       -8.7440    1.3440   41.4030 N.pl3 322  ARG322      0.1354
@<TRIPOS>BOND
     1   116   115    2
     2     1     2    1
     3   180   179    2
     4   115   114    1
     5   186   187    1
     6   187   188    1
     7   187   190    1
     8   179   178    1
     9     2     3    1
    10     2     5    1
    11   188   189    2
    12     3     4    2
    13   177   178    1
    14   114   113    1
    15   114   117    1
    16   181   178    1
    17   181   182    1
    18   190   191    1
    19     6     5    1
    20     6     7    1
    21   169   168    2
    22   117   118    1
    23     9     7   ar
    24   191   192    1
    25   182   183    1
    26   195   196    1
    27     7     8   ar
    28   183   184    1
    29   168   167    1
    30   166   167    1
    31    49    48    2
    32   118   120   ar
    33   118   119   ar
    34    48    47    1
    35   192   193   ar
    36   192   194   ar
    37   196   197    1
    38   196   199    1
    39   167   170    1
    40    10    11    1
    41   197   198    2
    42   184   185    1
    43   120   122   ar
    44   112   111    2
    45   111   110    1
    46   119   121   ar
    47    54    52   ar
    48    51    52    1
    49    51    50    1
    50   200   199    1
    51   200   201    1
    52   170   171    1
    53    47    50    1
    54    47    46    1
    55    13    12    2
    56    52    53   ar
    57    11    12    1
    58    11    14    1
    59   122   121   ar
    60   110   109    1
    61   201   202    1
    62   171   172    1
    63   132   131    1
    64   133   131    1
    65    14    15    1
    66   109   105   am
    67    15    16    1
    68   131   130    2
    69   173   172    1
    70   173   174    2
    71   202   203    2
    72   204   203    1
    73   176   174    1
    74    16    17   ar
    75    16    18   ar
    76   106   105    2
    77   105   104    1
    78   174   175    1
    79   108   107    1
    80   130   129    1
    81   203   205    1
    82   107   104    1
    83   129   128    1
    84   104   103    1
    85   128   127    1
    86    25    24   ar
    87   127   124    1
    88    41    40    2
    89    40    39    1
    90    23    24    1
    91    23    20    1
    92   103    97   am
    93    19    20    1
    94    24    26   ar
    95    44    43    1
    96    20    21    1
    97   153   151   am
    98   123   124    1
    99   124   125    1
   100    43    45    1
   101    43    42    1
   102   125   126    2
   103   152   151    2
   104   156   157    2
   105   156   155    1
   106    39    42    1
   107    39    38    1
   108   151   150    1
   109    97    98    2
   110    97    96    1
   111   101    99    1
   112   147   150    1
   113   147   146    1
   114   147   148    1
   115   155   154    1
   116   155   158    1
   117   149   148    2
   118    21    22    2
   119    21    27   am
   120    77    75    1
   121    96    99    1
   122    96    95    1
   123   138   139    1
   124   138   135    1
   125   141   139   ar
   126   141   143   ar
   127    99   100    1
   128    27    28    1
   129   160   162   ar
   130   160   159   ar
   131   139   140   ar
   132   143   144   ar
   133   158   159    1
   134   137   136    2
   135   140   142   ar
   136   144   142   ar
   137   144   145    1
   138   162   164   ar
   139    75    76    1
   140    75    74    2
   141   159   161   ar
   142   100   102    1
   143   134   135    1
   144   135   136    1
   145    74    73    1
   146    28    31    1
   147    28    29    1
   148    89    88    2
   149   164   165    1
   150   164   163   ar
   151    31    32    1
   152   161   163   ar
   153    66    65    1
   154    64    65   ar
   155    64    62   ar
   156    29    30    2
   157    88    87    1
   158    65    63   ar
   159    93    92    2
   160    62    60   ar
   161    73    72    1
   162    87    90    1
   163    87    86    1
   164    32    34   ar
   165    32    33   ar
   166    72    71    1
   167    92    94   am
   168    92    91    1
   169    63    61   ar
   170    84    83    1
   171    60    61   ar
   172    60    59    1
   173    34    36   ar
   174    90    91    1
   175    33    35   ar
   176    59    56    1
   177    71    68    1
   178    83    85    1
   179    83    82    1
   180    36    37   ar
   181    35    37   ar
   182    67    68    1
   183    67    57   am
   184    68    69    1
   185    56    57    1
   186    56    55    1
   187    57    58    2
   188    82    79    1
   189    69    70    2
   190    79    78    1
   191    79    80    1
   192    80    81    2
