@<TRIPOS>MOLECULE
tmp/1vafA02.pdb
 174 171 0 0 0
SMALL
GASTEIGER

@<TRIPOS>ATOM
      1  N        -39.3270  141.8760   40.3600 N.3    38  MET38      -0.1230
      2  CA       -40.4970  141.0220   40.4620 C.3    38  MET38       0.1702
      3  C        -40.2830  139.5350   40.2740 C.2    38  MET38       0.2592
      4  O        -40.5530  138.7380   41.1750 O.2    38  MET38      -0.2718
      5  CB       -41.5540  141.4650   39.4620 C.3    38  MET38       0.0401
      6  CG       -42.3440  142.6640   39.8860 C.3    38  MET38       0.0596
      7  SD       -43.8740  142.7020   38.9650 S.3    38  MET38      -0.1393
      8  CE       -44.9770  141.9450   40.1410 C.3    38  MET38       0.0692
      9  N        -39.8180  139.1650   39.0880 N.am   39  ASN39      -0.1974
     10  CA       -39.6210  137.7680   38.7640 C.3    39  ASN39       0.1688
     11  C        -38.1500  137.3780   38.7550 C.2    39  ASN39       0.2292
     12  O        -37.5930  137.0990   37.7040 O.2    39  ASN39      -0.2864
     13  CB       -40.2650  137.4900   37.4010 C.3    39  ASN39       0.1181
     14  CG       -41.7370  137.9250   37.3490 C.2    39  ASN39       0.2629
     15  OD1      -42.1900  138.5180   36.3650 O.2    39  ASN39      -0.2716
     16  ND2      -42.4880  137.6220   38.4090 N.am   39  ASN39      -0.0877
     17  N        -52.7440  131.0440   34.2580 N.3   180  SER180     -0.1202
     18  CA       -52.0260  131.7090   35.3410 C.3   180  SER180      0.2020
     19  C        -52.9720  131.8910   36.5160 C.2   180  SER180      0.2618
     20  O        -52.5600  132.1850   37.6340 O.2   180  SER180     -0.2717
     21  CB       -51.5350  133.0700   34.8730 C.3   180  SER180      0.2103
     22  OG       -52.6260  133.8660   34.4640 O.3   180  SER180     -0.2182
     23  N        -54.2520  131.6890   36.2390 N.am  181  GLN181     -0.1979
     24  CA       -55.3130  131.8350   37.2220 C.3   181  GLN181      0.1601
     25  C        -56.4760  130.9900   36.6670 C.2   181  GLN181      0.2287
     26  O        -56.8450  131.1460   35.5010 O.2   181  GLN181     -0.2864
     27  CB       -55.6970  133.3230   37.2950 C.3   181  GLN181      0.0394
     28  CG       -56.0280  133.8890   38.6750 C.3   181  GLN181      0.0908
     29  CD       -56.1630  135.4180   38.6730 C.2   181  GLN181      0.2608
     30  OE1      -56.5180  136.0230   39.6810 O.2   181  GLN181     -0.2717
     31  NE2      -55.8740  136.0370   37.5410 N.am  181  GLN181     -0.0878
     32  N        -60.1200  133.8520   34.7010 N.3   184  ARG184     -0.1245
     33  CA       -59.4890  135.1200   34.3460 C.3   184  ARG184      0.1563
     34  C        -60.1280  135.5980   33.0450 C.2   184  ARG184      0.2260
     35  O        -60.7430  134.8100   32.3380 O.2   184  ARG184     -0.2867
     36  CB       -57.9940  134.9090   34.1420 C.3   184  ARG184      0.0307
     37  CG       -57.0990  136.0720   34.5230 C.3   184  ARG184      0.0489
     38  CD       -55.6940  135.6720   34.1580 C.3   184  ARG184      0.2205
     39  NE       -54.6160  136.5180   34.6680 N.pl3 184  ARG184     -0.0865
     40  CZ       -54.5680  137.8390   34.5620 C.cat 184  ARG184      0.5346
     41  NH1      -55.5580  138.4960   33.9770 N.pl3 184  ARG184      0.1354
     42  NH2      -53.4950  138.4950   34.9880 N.pl3 184  ARG184      0.1354
     43  N        -60.0580  133.9160   43.4490 N.3   268  PRO268     -0.2116
     44  CA       -58.6640  134.1520   43.0770 C.3   268  PRO268      0.1372
     45  C        -57.8570  132.8760   43.3140 C.2   268  PRO268      0.2244
     46  O        -57.5830  132.4920   44.4560 O.2   268  PRO268     -0.2868
     47  CB       -58.2630  135.2730   44.0090 C.3   268  PRO268      0.0268
     48  CG       -58.9330  134.8490   45.2720 C.3   268  PRO268      0.0207
     49  CD       -60.3150  134.3970   44.8160 C.3   268  PRO268      0.0892
     50  N        -54.3450  130.8330   41.8910 N.3   270  VAL270     -0.1245
     51  CA       -53.1420  130.8210   41.0600 C.3   270  VAL270      0.1561
     52  C        -52.9580  129.4190   40.5000 C.2   270  VAL270      0.2260
     53  O        -52.9400  128.4500   41.2530 O.2   270  VAL270     -0.2867
     54  CB       -51.8930  131.1930   41.8700 C.3   270  VAL270      0.0252
     55  CG1      -50.8880  131.9060   40.9700 C.3   270  VAL270      0.0019
     56  CG2      -52.2800  132.0480   43.0380 C.3   270  VAL270      0.0019
     57  N        -50.3810  128.5760   37.9890 N.3   272  ASN272     -0.1225
     58  CA       -49.0720  128.3220   37.3850 C.3   272  ASN272      0.1785
     59  C        -47.8510  128.2600   38.2830 C.2   272  ASN272      0.2597
     60  O        -46.7390  128.4940   37.8090 O.2   272  ASN272     -0.2718
     61  CB       -48.8130  129.3630   36.3050 C.3   272  ASN272      0.1169
     62  CG       -48.9440  130.7780   36.8250 C.2   272  ASN272      0.2627
     63  OD1      -48.8320  131.7380   36.0690 O.2   272  ASN272     -0.2716
     64  ND2      -49.1840  130.9180   38.1230 N.am  272  ASN272     -0.0877
     65  N        -48.0220  127.9330   39.5580 N.am  273  MET273     -0.1979
     66  CA       -46.8640  127.8750   40.4400 C.3   273  MET273      0.1605
     67  C        -46.4570  126.4630   40.8380 C.2   273  MET273      0.2287
     68  O        -47.2670  125.5380   40.8070 O.2   273  MET273     -0.2864
     69  CB       -47.1110  128.7320   41.6760 C.3   273  MET273      0.0413
     70  CG       -47.1640  130.2060   41.3650 C.3   273  MET273      0.0598
     71  SD       -47.2890  131.1930   42.8300 S.3   273  MET273     -0.1393
     72  CE       -45.7400  130.8600   43.5600 C.3   273  MET273      0.0692
     73  N        -54.2010  126.6850   43.6180 N.3   287  PHE287     -0.1227
     74  CA       -54.6830  126.9480   44.9600 C.3   287  PHE287      0.1736
     75  C        -55.4000  128.2810   45.0110 C.2   287  PHE287      0.2595
     76  O        -55.0760  129.1830   44.2370 O.2   287  PHE287     -0.2718
     77  CB       -53.5020  126.9620   45.9330 C.3   287  PHE287      0.0547
     78  CG       -52.4220  127.9680   45.5890 C.ar  287  PHE287     -0.0202
     79  CD1      -52.6090  129.3260   45.8090 C.ar  287  PHE287     -0.0042
     80  CD2      -51.2040  127.5480   45.0710 C.ar  287  PHE287     -0.0042
     81  CE1      -51.6060  130.2430   45.5230 C.ar  287  PHE287     -0.0003
     82  CE2      -50.1990  128.4630   44.7830 C.ar  287  PHE287     -0.0003
     83  CZ       -50.4050  129.8120   45.0120 C.ar  287  PHE287     -0.0000
     84  N        -56.3690  128.4120   45.9170 N.am  288  ASN288     -0.1960
     85  CA       -57.1070  129.6700   46.0590 C.3   288  ASN288      0.1819
     86  C        -57.2330  130.1150   47.5160 C.2   288  ASN288      0.2622
     87  O        -56.7710  129.4490   48.4370 O.2   288  ASN288     -0.2715
     88  CB       -58.5140  129.5660   45.4490 C.3   288  ASN288      0.1195
     89  CG       -59.4740  128.7590   46.3120 C.2   288  ASN288      0.2630
     90  OD1      -59.3610  127.5430   46.4150 O.2   288  ASN288     -0.2716
     91  ND2      -60.4200  129.4420   46.9420 N.am  288  ASN288     -0.0877
     92  N        -57.8590  131.2680   47.6920 N.am  289  GLY289     -0.1940
     93  CA       -58.0930  131.8540   48.9970 C.3   289  GLY289      0.2014
     94  C        -59.0750  132.9110   48.5630 C.2   289  GLY289      0.2639
     95  O        -59.6930  132.7240   47.5190 O.2   289  GLY289     -0.2714
     96  N        -59.2420  134.0010   49.3030 N.am  290  TRP290     -0.1959
     97  CA       -60.1680  135.0310   48.8470 C.3   290  TRP290      0.1771
     98  C        -59.4390  136.3110   48.5090 C.2   290  TRP290      0.2619
     99  O        -58.2360  136.4290   48.7180 O.2   290  TRP290     -0.2715
    100  CB       -61.2630  135.2940   49.8750 C.3   290  TRP290      0.0590
    101  CG       -60.7650  135.5680   51.2390 C.ar  290  TRP290      0.0006
    102  CD1      -60.2510  136.7340   51.7060 C.ar  290  TRP290      0.0946
    103  CD2      -60.7420  134.6500   52.3290 C.ar  290  TRP290      0.0152
    104  NE1      -59.9100  136.6030   53.0260 N.ar  290  TRP290     -0.2442
    105  CE2      -60.2010  135.3300   53.4330 C.ar  290  TRP290      0.0810
    106  CE3      -61.1290  133.3130   52.4800 C.ar  290  TRP290      0.0012
    107  CZ2      -60.0350  134.7210   54.6740 C.ar  290  TRP290      0.0191
    108  CZ3      -60.9650  132.7090   53.7130 C.ar  290  TRP290      0.0001
    109  CH2      -60.4240  133.4120   54.7940 C.ar  290  TRP290      0.0015
    110  N        -60.1780  137.2690   47.9720 N.am  291  TYR291     -0.1974
    111  CA       -59.6100  138.5400   47.5560 C.3   291  TYR291      0.1639
    112  C        -59.3980  139.5650   48.6620 C.2   291  TYR291      0.2290
    113  O        -59.9650  139.4720   49.7440 O.2   291  TYR291     -0.2864
    114  CB       -60.5040  139.1680   46.4780 C.3   291  TYR291      0.0560
    115  CG       -60.1210  138.8780   45.0360 C.ar  291  TYR291     -0.0198
    116  CD1      -58.9960  139.4630   44.4570 C.ar  291  TYR291     -0.0009
    117  CD2      -60.9120  138.0560   44.2390 C.ar  291  TYR291     -0.0009
    118  CE1      -58.6780  139.2410   43.1210 C.ar  291  TYR291      0.0417
    119  CE2      -60.5990  137.8280   42.9030 C.ar  291  TYR291      0.0417
    120  CZ       -59.4860  138.4240   42.3530 C.ar  291  TYR291      0.1957
    121  OH       -59.2020  138.2220   41.0260 O.3   291  TYR291     -0.2866
    122  N        -56.7150  144.4000   45.3860 N.3   295  GLU295     -0.1245
    123  CA       -56.3110  143.5760   44.2550 C.3   295  GLU295      0.1567
    124  C        -57.1570  143.8990   43.0430 C.2   295  GLU295      0.2260
    125  O        -56.6360  144.0270   41.9430 O.2   295  GLU295     -0.2867
    126  CB       -56.4750  142.0880   44.5580 C.3   295  GLU295      0.0388
    127  CG       -55.5480  141.5200   45.5980 C.3   295  GLU295      0.1160
    128  CD       -55.7180  140.0220   45.7410 C.2   295  GLU295      0.3649
    129  OE1      -55.3330  139.2860   44.8170 O.co2 295  GLU295     -0.2457
    130  OE2      -56.2490  139.5760   46.7740 O.co2 295  GLU295     -0.2457
    131  N        -44.3310  143.7560   48.4990 N.3   381  TRP381     -0.1241
    132  CA       -45.5850  143.1170   48.1000 C.3   381  TRP381      0.1605
    133  C        -46.6530  143.1630   49.2020 C.2   381  TRP381      0.2264
    134  O        -47.8450  143.3180   48.9250 O.2   381  TRP381     -0.2867
    135  CB       -45.3230  141.6560   47.6990 C.3   381  TRP381      0.0550
    136  CG       -44.9900  141.4560   46.2430 C.ar  381  TRP381      0.0003
    137  CD1      -43.9410  141.9930   45.5560 C.ar  381  TRP381      0.0946
    138  CD2      -45.7300  140.6800   45.2970 C.ar  381  TRP381      0.0152
    139  NE1      -43.9830  141.6040   44.2410 N.ar  381  TRP381     -0.2442
    140  CE2      -45.0720  140.7970   44.0550 C.ar  381  TRP381      0.0810
    141  CE3      -46.8870  139.8950   45.3780 C.ar  381  TRP381      0.0012
    142  CZ2      -45.5320  140.1590   42.9050 C.ar  381  TRP381      0.0191
    143  CZ3      -47.3420  139.2620   44.2370 C.ar  381  TRP381      0.0001
    144  CH2      -46.6660  139.3980   43.0140 C.ar  381  TRP381      0.0015
    145  N        -42.1600  130.2600   41.0370 N.3   409  TYR409     -0.1227
    146  CA       -42.7950  130.6060   39.7750 C.3   409  TYR409      0.1736
    147  C        -42.1900  129.5780   38.8360 C.2   409  TYR409      0.2595
    148  O        -41.2690  128.8660   39.2180 O.2   409  TYR409     -0.2718
    149  CB       -42.3970  132.0010   39.2810 C.3   409  TYR409      0.0548
    150  CG       -42.8050  133.1520   40.1640 C.ar  409  TYR409     -0.0200
    151  CD1      -44.1170  133.2910   40.5930 C.ar  409  TYR409     -0.0009
    152  CD2      -41.8770  134.1160   40.5580 C.ar  409  TYR409     -0.0009
    153  CE1      -44.5000  134.3470   41.3890 C.ar  409  TYR409      0.0417
    154  CE2      -42.2510  135.1810   41.3590 C.ar  409  TYR409      0.0417
    155  CZ       -43.5670  135.2850   41.7690 C.ar  409  TYR409      0.1957
    156  OH       -43.9630  136.3250   42.5660 O.3   409  TYR409     -0.2866
    157  N        -42.6970  129.4990   37.6150 N.am  410  GLN410     -0.1979
    158  CA       -42.1670  128.5560   36.6380 C.3   410  GLN410      0.1601
    159  C        -42.0200  129.3030   35.3380 C.2   410  GLN410      0.2287
    160  O        -42.3970  130.4620   35.2570 O.2   410  GLN410     -0.2864
    161  CB       -43.1310  127.4010   36.4220 C.3   410  GLN410      0.0394
    162  CG       -43.5150  126.6500   37.6660 C.3   410  GLN410      0.0908
    163  CD       -44.2940  125.4120   37.3240 C.2   410  GLN410      0.2608
    164  OE1      -43.7850  124.5180   36.6510 O.2   410  GLN410     -0.2717
    165  NE2      -45.5390  125.3550   37.7670 N.am  410  GLN410     -0.0878
    166  N        -43.1150  130.0180   31.5220 N.3   412  GLU412     -0.1245
    167  CA       -44.2500  129.8430   30.6220 C.3   412  GLU412      0.1567
    168  C        -44.1200  128.5170   29.8690 C.2   412  GLU412      0.2260
    169  O        -43.2130  128.3430   29.0510 O.2   412  GLU412     -0.2867
    170  CB       -44.2650  130.9820   29.6140 C.3   412  GLU412      0.0388
    171  CG       -43.9820  132.3290   30.2290 C.3   412  GLU412      0.1160
    172  CD       -45.2390  132.9950   30.7230 C.2   412  GLU412      0.3649
    173  OE1      -45.9600  132.3610   31.5390 O.co2 412  GLU412     -0.2457
    174  OE2      -45.5010  134.1480   30.2850 O.co2 412  GLU412     -0.2457
@<TRIPOS>BOND
     1   169   168    2
     2   170   171    1
     3   170   167    1
     4   168   167    1
     5   171   172    1
     6   174   172   ar
     7   167   166    1
     8   172   173   ar
     9    35    34    2
    10    34    33    1
    11    41    40    1
    12    36    33    1
    13    36    37    1
    14    38    37    1
    15    38    39    1
    16    17    18    1
    17    33    32    1
    18    22    21    1
    19    40    39    2
    20    40    42    1
    21    21    18    1
    22   160   159    2
    23   159   158    1
    24    18    19    1
    25    26    25    2
    26    63    62    2
    27    23    19   am
    28    23    24    1
    29    61    62    1
    30    61    58    1
    31    15    14    2
    32   161   158    1
    33   161   162    1
    34    19    20    2
    35   158   157    1
    36   164   163    2
    37    25    24    1
    38    62    64   am
    39    24    27    1
    40    27    28    1
    41   163   162    1
    42   163   165   am
    43    14    13    1
    44    14    16   am
    45    58    57    1
    46    58    59    1
    47    13    10    1
    48    31    29   am
    49   157   147   am
    50    12    11    2
    51    60    59    2
    52    59    65   am
    53    29    28    1
    54    29    30    2
    55    11    10    1
    56    10     9    1
    57   147   148    2
    58   147   146    1
    59     7     6    1
    60     7     8    1
    61     9     3   am
    62   149   146    1
    63   149   150    1
    64     5     6    1
    65     5     2    1
    66    65    66    1
    67   146   145    1
    68   150   152   ar
    69   150   151   ar
    70     3     2    1
    71     3     4    2
    72     1     2    1
    73    66    67    1
    74    66    69    1
    75    52    51    1
    76    52    53    2
    77   152   154   ar
    78   151   153   ar
    79    68    67    2
    80    55    54    1
    81   121   120    1
    82    51    54    1
    83    51    50    1
    84   154   155   ar
    85    70    69    1
    86    70    71    1
    87   153   155   ar
    88   155   156    1
    89    54    56    1
    90   125   124    2
    91   120   119   ar
    92   120   118   ar
    93    71    72    1
    94   119   117   ar
    95   142   144   ar
    96   142   140   ar
    97   144   143   ar
    98   124   123    1
    99    44    45    1
   100    44    43    1
   101    44    47    1
   102   118   116   ar
   103    45    46    2
   104    43    49    1
   105    73    74    1
   106    47    48    1
   107   140   139   ar
   108   140   138   ar
   109   143   141   ar
   110    76    75    2
   111   117   115   ar
   112   139   137   ar
   113   123   126    1
   114   123   122    1
   115   116   115   ar
   116   126   127    1
   117    82    83   ar
   118    82    80   ar
   119    49    48    1
   120   129   128   ar
   121    74    75    1
   122    74    77    1
   123    75    84   am
   124    83    81   ar
   125   115   114    1
   126    80    78   ar
   127   138   141   ar
   128   138   136   ar
   129    88    85    1
   130    88    89    1
   131    81    79   ar
   132   137   136   ar
   133    78    79   ar
   134    78    77    1
   135   127   128    1
   136   128   130   ar
   137    84    85    1
   138    85    86    1
   139   136   135    1
   140    89    90    2
   141    89    91   am
   142   114   111    1
   143    86    92   am
   144    86    87    2
   145    95    94    2
   146   111   110    1
   147   111   112    1
   148    92    93    1
   149   135   132    1
   150   110    98   am
   151   132   131    1
   152   132   133    1
   153    98    99    2
   154    98    97    1
   155    94    93    1
   156    94    96   am
   157   112   113    2
   158    97    96    1
   159    97   100    1
   160   134   133    2
   161   100   101    1
   162   101   102   ar
   163   101   103   ar
   164   102   104   ar
   165   103   106   ar
   166   103   105   ar
   167   106   108   ar
   168   104   105   ar
   169   105   107   ar
   170   108   109   ar
   171   107   109   ar
