@<TRIPOS>MOLECULE
tmp/1vagA02.pdb
 154 152 0 0 0
SMALL
GASTEIGER

@<TRIPOS>ATOM
      1  N          7.7660   11.2340   47.5530 N.3    40  MET40      -0.1230
      2  CA         7.5290   10.7470   48.9100 C.3    40  MET40       0.1702
      3  C          7.4490   11.8410   49.9610 C.2    40  MET40       0.2592
      4  O          6.5360   11.8650   50.7860 O.2    40  MET40      -0.2718
      5  CB         8.6370    9.7690   49.2960 C.3    40  MET40       0.0401
      6  CG         8.4950    8.4060   48.6760 C.3    40  MET40       0.0596
      7  SD         7.8480    7.2430   49.8780 S.3    40  MET40      -0.1393
      8  CE         9.3170    6.3520   50.2790 C.3    40  MET40       0.0692
      9  N          8.4280   12.7360   49.9250 N.am   41  LEU41      -0.1980
     10  CA         8.5170   13.8440   50.8630 C.3    41  LEU41       0.1596
     11  C          8.6150   15.1540   50.1050 C.2    41  LEU41       0.2287
     12  O          9.7010   15.7240   49.9910 O.2    41  LEU41      -0.2864
     13  CB         9.7610   13.6760   51.7360 C.3    41  LEU41       0.0297
     14  CG         9.7180   12.4150   52.5950 C.3    41  LEU41       0.0022
     15  CD1       11.0210   12.2170   53.3440 C.3    41  LEU41       0.0001
     16  CD2        8.5460   12.5510   53.5500 C.3    41  LEU41       0.0001
     17  N          8.3540    2.2850   64.5400 N.3   182  GLN182     -0.1245
     18  CA         7.1070    1.6080   64.8870 C.3   182  GLN182      0.1566
     19  C          7.3570    0.9550   66.2420 C.2   182  GLN182      0.2260
     20  O          8.4680    0.5060   66.5160 O.2   182  GLN182     -0.2867
     21  CB         6.7480    0.5300   63.8640 C.3   182  GLN182      0.0367
     22  CG         6.5170    1.0360   62.4550 C.3   182  GLN182      0.0905
     23  CD         6.0950   -0.0730   61.5130 C.2   182  GLN182      0.2608
     24  OE1        6.2670    0.0350   60.3040 O.2   182  GLN182     -0.2717
     25  NE2        5.5330   -1.1440   62.0630 N.am  182  GLN182     -0.0878
     26  N          0.5760   -3.3220   63.9210 N.3   269  PRO269     -0.2116
     27  CA         1.3600   -2.2850   63.2450 C.3   269  PRO269      0.1372
     28  C          1.0940   -0.9960   64.0420 C.2   269  PRO269      0.2244
     29  O         -0.0600   -0.6170   64.2500 O.2   269  PRO269     -0.2868
     30  CB         0.7600   -2.2630   61.8440 C.3   269  PRO269      0.0268
     31  CG        -0.6660   -2.5800   62.0920 C.3   269  PRO269      0.0207
     32  CD        -0.6130   -3.6810   63.1250 C.3   269  PRO269      0.0892
     33  N          2.6400    2.9770   64.3020 N.3   271  VAL271     -0.1245
     34  CA         3.5320    4.0630   63.9110 C.3   271  VAL271      0.1561
     35  C          3.8510    4.9820   65.0830 C.2   271  VAL271      0.2260
     36  O          2.9490    5.5180   65.7340 O.2   271  VAL271     -0.2867
     37  CB         2.9050    4.8780   62.7680 C.3   271  VAL271      0.0252
     38  CG1        3.8450    6.0000   62.3270 C.3   271  VAL271      0.0019
     39  CG2        2.5980    3.9530   61.6230 C.3   271  VAL271      0.0019
     40  N          6.8280    7.3910   64.8390 N.3   273  ASN273     -0.1225
     41  CA         7.7560    8.4720   64.4940 C.3   273  ASN273      0.1785
     42  C          7.1240    9.7010   63.8480 C.2   273  ASN273      0.2597
     43  O          7.8340   10.6320   63.4630 O.2   273  ASN273     -0.2718
     44  CB         8.8690    7.9510   63.5830 C.3   273  ASN273      0.1169
     45  CG         8.3370    7.3580   62.2990 C.2   273  ASN273      0.2627
     46  OD1        9.1030    6.9490   61.4280 O.2   273  ASN273     -0.2716
     47  ND2        7.0170    7.3050   62.1720 N.am  273  ASN273     -0.0877
     48  N          5.7990    9.7170   63.7360 N.am  274  MET274     -0.1979
     49  CA         5.1310   10.8570   63.1250 C.3   274  MET274      0.1605
     50  C          4.7530   11.9250   64.1300 C.2   274  MET274      0.2287
     51  O          4.8230   11.7140   65.3370 O.2   274  MET274     -0.2864
     52  CB         3.8950   10.4040   62.3410 C.3   274  MET274      0.0413
     53  CG         4.2540    9.6370   61.0650 C.3   274  MET274      0.0598
     54  SD         2.8380    9.2510   59.9950 S.3   274  MET274     -0.1393
     55  CE         2.7600   10.7460   59.0000 C.3   274  MET274      0.0692
     56  N          0.4050    5.5410   67.1690 N.3   288  PHE288     -0.1227
     57  CA        -0.9430    5.0950   66.8190 C.3   288  PHE288      0.1736
     58  C         -0.9280    3.7400   66.1270 C.2   288  PHE288      0.2596
     59  O          0.0490    3.3800   65.4660 O.2   288  PHE288     -0.2718
     60  CB        -1.6530    6.1500   65.9540 C.3   288  PHE288      0.0547
     61  CG        -0.9740    6.4440   64.6430 C.ar  288  PHE288     -0.0202
     62  CD1       -1.1380    5.5970   63.5520 C.ar  288  PHE288     -0.0042
     63  CD2       -0.2290    7.6060   64.4820 C.ar  288  PHE288     -0.0042
     64  CE1       -0.5810    5.9080   62.3180 C.ar  288  PHE288     -0.0003
     65  CE2        0.3310    7.9280   63.2550 C.ar  288  PHE288     -0.0003
     66  CZ         0.1550    7.0810   62.1660 C.ar  288  PHE288     -0.0000
     67  N         -2.0130    2.9890   66.2880 N.am  289  SER289     -0.1938
     68  CA        -2.0970    1.6580   65.7110 C.3   289  SER289      0.2055
     69  C         -3.4930    1.2630   65.2540 C.2   289  SER289      0.2644
     70  O         -4.5000    1.8100   65.7040 O.2   289  SER289     -0.2714
     71  CB        -1.5990    0.6180   66.7260 C.3   289  SER289      0.2130
     72  OG        -2.4730    0.5290   67.8420 O.3   289  SER289     -0.2179
     73  N         -3.5300    0.3000   64.3400 N.am  290  GLY290     -0.1939
     74  CA        -4.7860   -0.2170   63.8110 C.3   290  GLY290      0.2014
     75  C         -4.4930   -1.6830   63.5360 C.2   290  GLY290      0.2639
     76  O         -4.1440   -2.4310   64.4490 O.2   290  GLY290     -0.2714
     77  N         -4.6310   -2.0990   62.2860 N.am  291  TRP291     -0.1959
     78  CA        -4.3130   -3.4700   61.9110 C.3   291  TRP291      0.1771
     79  C         -3.7330   -3.5110   60.4980 C.2   291  TRP291      0.2619
     80  O         -3.8370   -2.5500   59.7370 O.2   291  TRP291     -0.2715
     81  CB        -5.5380   -4.3840   62.0560 C.3   291  TRP291      0.0590
     82  CG        -6.7680   -3.9560   61.3480 C.ar  291  TRP291      0.0006
     83  CD1       -7.0600   -4.1270   60.0260 C.ar  291  TRP291      0.0946
     84  CD2       -7.9060   -3.3220   61.9320 C.ar  291  TRP291      0.0152
     85  NE1       -8.3170   -3.6420   59.7510 N.ar  291  TRP291     -0.2442
     86  CE2       -8.8570   -3.1410   60.9040 C.ar  291  TRP291      0.0810
     87  CE3       -8.2170   -2.8890   63.2260 C.ar  291  TRP291      0.0012
     88  CZ2      -10.1000   -2.5460   61.1320 C.ar  291  TRP291      0.0191
     89  CZ3       -9.4580   -2.2960   63.4530 C.ar  291  TRP291      0.0001
     90  CH2      -10.3810   -2.1310   62.4120 C.ar  291  TRP291      0.0015
     91  N         -3.0960   -4.6230   60.1630 N.am  292  TYR292     -0.1974
     92  CA        -2.4600   -4.7900   58.8670 C.3   292  TYR292      0.1639
     93  C         -3.3500   -5.1040   57.6800 C.2   292  TYR292      0.2290
     94  O         -4.4210   -5.7100   57.8150 O.2   292  TYR292     -0.2864
     95  CB        -1.4250   -5.9170   58.9380 C.3   292  TYR292      0.0560
     96  CG        -0.0370   -5.4940   59.3270 C.ar  292  TYR292     -0.0198
     97  CD1        0.6680   -4.5710   58.5560 C.ar  292  TYR292     -0.0009
     98  CD2        0.5910   -6.0400   60.4490 C.ar  292  TYR292     -0.0009
     99  CE1        1.9650   -4.2010   58.8840 C.ar  292  TYR292      0.0417
    100  CE2        1.8920   -5.6720   60.7900 C.ar  292  TYR292      0.0417
    101  CZ         2.5700   -4.7500   59.9980 C.ar  292  TYR292      0.1957
    102  OH         3.8520   -4.3730   60.3150 O.3   292  TYR292     -0.2866
    103  N          1.1070   -5.2570   53.0720 N.3   296  GLU296     -0.1245
    104  CA         2.1330   -4.5220   53.7930 C.3   296  GLU296      0.1567
    105  C          3.2590   -5.4590   54.2050 C.2   296  GLU296      0.2260
    106  O          4.4340   -5.0870   54.2010 O.2   296  GLU296     -0.2867
    107  CB         1.5350   -3.8690   55.0370 C.3   296  GLU296      0.0388
    108  CG         0.5240   -2.7570   54.7530 C.3   296  GLU296      0.1160
    109  CD         0.1110   -2.0300   56.0220 C.2   296  GLU296      0.3649
    110  OE1       -1.0600   -2.1490   56.4350 O.co2 296  GLU296     -0.2457
    111  OE2        0.9650   -1.3420   56.6130 O.co2 296  GLU296     -0.2457
    112  N         -0.4860    6.0510   46.8590 N.3   382  TRP382     -0.1241
    113  CA        -0.3890    5.2870   48.0970 C.3   382  TRP382      0.1605
    114  C         -1.5730    4.3780   48.3790 C.2   382  TRP382      0.2264
    115  O         -1.4170    3.3180   48.9810 O.2   382  TRP382     -0.2867
    116  CB        -0.2150    6.2370   49.2780 C.3   382  TRP382      0.0550
    117  CG         1.1990    6.5990   49.5380 C.ar  382  TRP382      0.0003
    118  CD1        2.0480    7.2730   48.7030 C.ar  382  TRP382      0.0946
    119  CD2        1.9450    6.2970   50.7150 C.ar  382  TRP382      0.0152
    120  NE1        3.2840    7.4090   49.2940 N.ar  382  TRP382     -0.2442
    121  CE2        3.2490    6.8180   50.5290 C.ar  382  TRP382      0.0810
    122  CE3        1.6400    5.6330   51.9130 C.ar  382  TRP382      0.0012
    123  CZ2        4.2450    6.7000   51.4950 C.ar  382  TRP382      0.0191
    124  CZ3        2.6350    5.5140   52.8750 C.ar  382  TRP382      0.0001
    125  CH2        3.9230    6.0470   52.6570 C.ar  382  TRP382      0.0015
    126  N          5.4210   14.3710   58.8790 N.3   410  TYR410     -0.1227
    127  CA         6.6620   13.6510   59.1310 C.3   410  TYR410      0.1736
    128  C          7.5390   14.6070   59.9430 C.2   410  TYR410      0.2595
    129  O          7.2630   15.8060   60.0040 O.2   410  TYR410     -0.2718
    130  CB         7.3550   13.2970   57.8150 C.3   410  TYR410      0.0548
    131  CG         6.5380   12.4000   56.9090 C.ar  410  TYR410     -0.0200
    132  CD1        6.2300   11.0930   57.2840 C.ar  410  TYR410     -0.0009
    133  CD2        6.0900   12.8510   55.6640 C.ar  410  TYR410     -0.0009
    134  CE1        5.5010   10.2540   56.4410 C.ar  410  TYR410      0.0417
    135  CE2        5.3640   12.0190   54.8160 C.ar  410  TYR410      0.0417
    136  CZ         5.0780   10.7210   55.2150 C.ar  410  TYR410      0.1957
    137  OH         4.3960    9.8780   54.3770 O.3   410  TYR410     -0.2866
    138  N          8.5800   14.0800   60.5770 N.am  411  GLN411     -0.1979
    139  CA         9.4790   14.9080   61.3710 C.3   411  GLN411      0.1601
    140  C         10.8680   14.2940   61.3580 C.2   411  GLN411      0.2287
    141  O         11.0180   13.0810   61.2200 O.2   411  GLN411     -0.2864
    142  CB         8.9740   15.0320   62.8100 C.3   411  GLN411      0.0394
    143  CG         8.6750   13.7100   63.4640 C.3   411  GLN411      0.0908
    144  CD         8.2320   13.8450   64.9020 C.2   411  GLN411      0.2608
    145  OE1        7.7640   12.8810   65.5030 O.2   411  GLN411     -0.2717
    146  NE2        8.3870   15.0320   65.4670 N.am  411  GLN411     -0.0878
    147  N         14.4120   12.5830   62.0650 N.3   413  ASP413     -0.1239
    148  CA        14.7990   11.4780   62.9300 C.3   413  ASP413      0.1674
    149  C         15.4450   12.1320   64.1340 C.2   413  ASP413      0.2266
    150  O         16.3140   12.9850   63.9850 O.2   413  ASP413     -0.2867
    151  CB        15.7910   10.5680   62.2200 C.3   413  ASP413      0.1410
    152  CG        15.1040    9.5400   61.3600 C.2   413  ASP413      0.3668
    153  OD1       15.7870    8.8650   60.5650 O.co2 413  ASP413     -0.2456
    154  OD2       13.8700    9.3920   61.4880 O.co2 413  ASP413     -0.2456
@<TRIPOS>BOND
     1   112   113    1
     2     1     2    1
     3   113   114    1
     4   113   116    1
     5   114   115    2
     6     6     5    1
     7     6     7    1
     8   118   120   ar
     9   118   117   ar
    10     2     5    1
    11     2     3    1
    12   116   117    1
    13   120   121   ar
    14   117   119   ar
    15     7     8    1
    16     9     3   am
    17     9    10    1
    18     3     4    2
    19    12    11    2
    20    11    10    1
    21   121   119   ar
    22   121   123   ar
    23   119   122   ar
    24    10    13    1
    25   123   125   ar
    26    13    14    1
    27   122   124   ar
    28    14    15    1
    29    14    16    1
    30   125   124   ar
    31   103   104    1
    32   104   105    1
    33   104   107    1
    34   106   105    2
    35   137   136    1
    36   108   107    1
    37   108   109    1
    38   135   136   ar
    39   135   133   ar
    40   136   134   ar
    41   133   131   ar
    42   109   110   ar
    43   109   111   ar
    44   134   132   ar
    45   131   132   ar
    46   131   130    1
    47    93    94    2
    48    93    92    1
    49   130   127    1
    50    97    99   ar
    51    97    96   ar
    52    92    95    1
    53    92    91    1
    54   126   127    1
    55    99   101   ar
    56    95    96    1
    57    55    54    1
    58   127   128    1
    59    96    98   ar
    60    80    79    2
    61    85    83   ar
    62    85    86   ar
    63   128   129    2
    64   128   138   am
    65    54    53    1
    66   101   102    1
    67   101   100   ar
    68    83    82   ar
    69    91    79   am
    70    24    23    2
    71    98   100   ar
    72    79    78    1
    73   153   152   ar
    74   138   139    1
    75    86    88   ar
    76    86    84   ar
    77    53    52    1
    78    88    90   ar
    79   141   140    2
    80    82    84   ar
    81    82    81    1
    82   140   139    1
    83   152   154   ar
    84   152   151    1
    85   139   142    1
    86    46    45    2
    87    23    25   am
    88    23    22    1
    89    39    37    1
    90    30    31    1
    91    30    27    1
    92    78    81    1
    93    78    77    1
    94    84    87   ar
    95   147   148    1
    96    31    32    1
    97    66    64   ar
    98    66    65   ar
    99    47    45   am
   100   151   148    1
   101    77    75   am
   102    45    44    1
   103    64    62   ar
   104    38    37    1
   105    52    49    1
   106    90    89   ar
   107    22    21    1
   108    37    34    1
   109   142   143    1
   110   148   149    1
   111    32    26    1
   112    49    48    1
   113    49    50    1
   114    87    89   ar
   115    27    26    1
   116    27    28    1
   117    65    63   ar
   118    43    42    2
   119   143   144    1
   120    75    74    1
   121    75    76    2
   122    62    61   ar
   123    44    41    1
   124    48    42   am
   125    74    73    1
   126    42    41    1
   127    21    18    1
   128    34    33    1
   129    34    35    1
   130   150   149    2
   131    28    29    2
   132    50    51    2
   133    73    69   am
   134    63    61   ar
   135    41    40    1
   136    17    18    1
   137    61    60    1
   138    18    19    1
   139   144   146   am
   140   144   145    2
   141    35    36    2
   142    69    70    2
   143    69    68    1
   144    59    58    2
   145    68    67    1
   146    68    71    1
   147    60    57    1
   148    58    67   am
   149    58    57    1
   150    19    20    2
   151    71    72    1
   152    57    56    1
