@<TRIPOS>MOLECULE
tmp/1vaiB00.pdb
 145 139 0 0 0
SMALL
GASTEIGER

@<TRIPOS>ATOM
      1  N         -3.3370   34.2520   15.2030 N.3    47  HIS47      -0.1226
      2  CA        -3.2260   35.5870   15.7740 C.3    47  HIS47       0.1752
      3  C         -2.6160   36.6670   14.9040 C.2    47  HIS47       0.2595
      4  O         -2.6830   37.8490   15.2500 O.2    47  HIS47      -0.2718
      5  CB        -2.4600   35.5120   17.0960 C.3    47  HIS47       0.0759
      6  CG        -1.0140   35.1620   16.9350 C.ar   47  HIS47       0.0818
      7  ND1       -0.5860   33.8900   16.6260 N.ar   47  HIS47      -0.2268
      8  CD2        0.1030   35.9190   17.0380 C.ar   47  HIS47       0.1154
      9  CE1        0.7310   33.8760   16.5470 C.ar   47  HIS47       0.1986
     10  NE2        1.1750   35.0960   16.7920 N.ar   47  HIS47      -0.2212
     11  N         -2.0150   36.2740   13.7870 N.am   48  ARG48      -0.1980
     12  CA        -1.4140   37.2440   12.8830 C.3    48  ARG48       0.1597
     13  C         -1.6630   36.8220   11.4470 C.2    48  ARG48       0.2287
     14  O         -1.1600   35.7960   10.9990 O.2    48  ARG48      -0.2864
     15  CB         0.0920   37.3690   13.1210 C.3    48  ARG48       0.0334
     16  CG         0.7600   38.3450   12.1610 C.3    48  ARG48       0.0492
     17  CD         2.1030   38.8260   12.6790 C.3    48  ARG48       0.2205
     18  NE         3.2000   38.0240   12.1500 N.pl3  48  ARG48      -0.0865
     19  CZ         4.1390   38.4780   11.3250 C.cat  48  ARG48       0.5346
     20  NH1        4.1310   39.7400   10.9200 N.pl3  48  ARG48       0.1354
     21  NH2        5.0880   37.6600   10.8990 N.pl3  48  ARG48       0.1354
     22  N          0.4110   37.3460    2.0780 N.3    53  PHE53      -0.1227
     23  CA         1.6690   36.9880    2.7240 C.3    53  PHE53       0.1736
     24  C          1.5660   35.6490    3.4580 C.2    53  PHE53       0.2595
     25  O          2.0550   34.6260    2.9690 O.2    53  PHE53      -0.2718
     26  CB         2.0650   38.1280    3.6700 C.3    53  PHE53       0.0547
     27  CG         3.3540   37.9110    4.4230 C.ar   53  PHE53      -0.0202
     28  CD1        4.3010   36.9840    3.9990 C.ar   53  PHE53      -0.0042
     29  CD2        3.6180   38.6530    5.5760 C.ar   53  PHE53      -0.0042
     30  CE1        5.4880   36.8000    4.7140 C.ar   53  PHE53      -0.0003
     31  CE2        4.7990   38.4770    6.2960 C.ar   53  PHE53      -0.0003
     32  CZ         5.7330   37.5510    5.8650 C.ar   53  PHE53      -0.0000
     33  N          0.9300   35.6420    4.6210 N.am   54  MET54      -0.1979
     34  CA         0.7920   34.4040    5.3760 C.3    54  MET54       0.1605
     35  C         -0.1850   34.5450    6.5330 C.2    54  MET54       0.2287
     36  O         -0.6580   35.6440    6.8380 O.2    54  MET54      -0.2864
     37  CB         2.1610   33.9740    5.9250 C.3    54  MET54       0.0413
     38  CG         2.8490   35.0410    6.7830 C.3    54  MET54       0.0598
     39  SD         2.4270   34.9680    8.5490 S.3    54  MET54      -0.1393
     40  CE         2.1380   36.6890    8.9000 C.3    54  MET54       0.0692
     41  N         -0.4290   33.1920   10.5340 N.3    56  GLN56      -0.1245
     42  CA         0.3640   32.5980   11.5970 C.3    56  GLN56       0.1566
     43  C         -0.4810   32.2330   12.8110 C.2    56  GLN56       0.2260
     44  O         -1.4070   32.9640   13.1720 O.2    56  GLN56      -0.2867
     45  CB         1.4490   33.5970   11.9910 C.3    56  GLN56       0.0367
     46  CG         2.3740   33.1670   13.0980 C.3    56  GLN56       0.0905
     47  CD         3.3810   34.2460   13.4160 C.2    56  GLN56       0.2608
     48  OE1        3.6090   35.1500   12.6090 O.2    56  GLN56      -0.2717
     49  NE2        3.9920   34.1620   14.5910 N.am   56  GLN56      -0.0878
     50  N         -0.8190   33.7980   26.0090 N.3    66  GLN66      -0.1245
     51  CA         0.2390   32.9960   25.4240 C.3    66  GLN66       0.1566
     52  C          0.3380   31.6440   26.1150 C.2    66  GLN66       0.2260
     53  O          0.3710   31.5620   27.3410 O.2    66  GLN66      -0.2867
     54  CB         1.5750   33.7300   25.5280 C.3    66  GLN66       0.0367
     55  CG         2.4810   33.5280   24.3260 C.3    66  GLN66       0.0905
     56  CD         3.7230   34.4040   24.3760 C.2    66  GLN66       0.2608
     57  OE1        4.3460   34.6810   23.3460 O.2    66  GLN66      -0.2717
     58  NE2        4.0910   34.8440   25.5790 N.am   66  GLN66      -0.0878
     59  N          7.5660   29.6360   12.7190 N.3    91  ALA91      -0.1231
     60  CA         7.8390   31.0170   13.0540 C.3    91  ALA91       0.1694
     61  C          8.8570   30.9630   14.2000 C.2    91  ALA91       0.2592
     62  O          8.9730   29.9530   14.9040 O.2    91  ALA91      -0.2718
     63  CB         6.5610   31.7150   13.5030 C.3    91  ALA91       0.0304
     64  N          9.6110   32.0380   14.3810 N.am   92  ARG92      -0.1966
     65  CA        10.6050   32.0890   15.4470 C.3    92  ARG92       0.1729
     66  C         10.9720   33.5470   15.6530 C.2    92  ARG92       0.2616
     67  O         10.4650   34.4210   14.9490 O.2    92  ARG92      -0.2715
     68  CB        11.8480   31.2930   15.0500 C.3    92  ARG92       0.0348
     69  CG        12.3460   31.5920   13.6410 C.3    92  ARG92       0.0492
     70  CD        13.8330   31.3570   13.5320 C.3    92  ARG92       0.2205
     71  NE        14.3650   31.6970   12.2170 N.pl3  92  ARG92      -0.0865
     72  CZ        15.1450   32.7480   11.9780 C.cat  92  ARG92       0.5346
     73  NH1       15.5900   32.9810   10.7520 N.pl3  92  ARG92       0.1354
     74  NH2       15.4680   33.5770   12.9640 N.pl3  92  ARG92       0.1354
     75  N         11.8400   33.8110   16.6190 N.am   93  THR93      -0.1951
     76  CA        12.2680   35.1770   16.8670 C.3    93  THR93       0.1897
     77  C         13.6220   35.3860   16.2010 C.2    93  THR93       0.2313
     78  O         14.0180   34.6080   15.3260 O.2    93  THR93      -0.2863
     79  CB        12.3600   35.4790   18.3800 C.3    93  THR93       0.1794
     80  OG1       13.0400   34.4130   19.0520 O.3    93  THR93      -0.2208
     81  CG2       10.9610   35.6220   18.9700 C.3    93  THR93       0.0378
     82  N         15.1010   29.3610   17.7560 N.3    98  SER98      -0.1217
     83  CA        14.1500   29.7650   18.7890 C.3    98  SER98       0.1889
     84  C         12.7090   29.3180   18.5220 C.2    98  SER98       0.2288
     85  O         11.8060   29.6290   19.2940 O.2    98  SER98      -0.2866
     86  CB        14.1850   31.2870   18.9470 C.3    98  SER98       0.2089
     87  OG        13.8200   31.9240   17.7350 O.3    98  SER98      -0.2183
     88  N          9.3190   27.3200   18.5170 N.3   100  THR100     -0.1218
     89  CA         8.7020   26.4130   19.4710 C.3   100  THR100      0.1862
     90  C          7.4180   25.8450   18.8850 C.2   100  THR100      0.2287
     91  O          7.4610   24.8350   18.1870 O.2   100  THR100     -0.2866
     92  CB         8.4160   27.0910   20.8400 C.3   100  THR100      0.1770
     93  OG1        7.6670   28.2980   20.6490 O.3   100  THR100     -0.2211
     94  CG2        9.7330   27.4200   21.5460 C.3   100  THR100      0.0375
     95  N          4.7310   28.0410   17.3180 N.3   102  GLN102     -0.1245
     96  CA         4.1150   28.8730   16.2940 C.3   102  GLN102      0.1566
     97  C          4.5500   28.5240   14.8790 C.2   102  GLN102      0.2260
     98  O          5.7310   28.3290   14.5910 O.2   102  GLN102     -0.2867
     99  CB         4.3920   30.3510   16.5860 C.3   102  GLN102      0.0367
    100  CG         3.6180   30.8830   17.7850 C.3   102  GLN102      0.0905
    101  CD         3.8390   32.3590   18.0120 C.2   102  GLN102      0.2608
    102  OE1        3.6130   33.1720   17.1240 O.2   102  GLN102     -0.2717
    103  NE2        4.2840   32.7140   19.2110 N.am  102  GLN102     -0.0878
    104  N          3.3360   29.0960   10.4630 N.3   104  PHE104     -0.1241
    105  CA         2.6110   29.9380    9.5310 C.3   104  PHE104      0.1605
    106  C          2.4720   29.2270    8.2030 C.2   104  PHE104      0.2264
    107  O          3.3080   28.4020    7.8400 O.2   104  PHE104     -0.2867
    108  CB         3.2810   31.3170    9.3540 C.3   104  PHE104      0.0534
    109  CG         4.6770   31.2760    8.7810 C.ar  104  PHE104     -0.0203
    110  CD1        4.8870   31.4250    7.4130 C.ar  104  PHE104     -0.0042
    111  CD2        5.7790   31.1750    9.6170 C.ar  104  PHE104     -0.0042
    112  CE1        6.1750   31.4800    6.8910 C.ar  104  PHE104     -0.0003
    113  CE2        7.0760   31.2300    9.1030 C.ar  104  PHE104     -0.0003
    114  CZ         7.2730   31.3830    7.7410 C.ar  104  PHE104     -0.0000
    115  N         11.6580   35.8220    0.2360 N.3   112  PHE112     -0.1227
    116  CA        12.4590   36.6120    1.1530 C.3   112  PHE112      0.1736
    117  C         12.6070   35.8840    2.4930 C.2   112  PHE112      0.2595
    118  O         13.4390   36.2540    3.3150 O.2   112  PHE112     -0.2718
    119  CB        11.8400   38.0060    1.3480 C.3   112  PHE112      0.0547
    120  CG        10.3850   37.9890    1.7190 C.ar  112  PHE112     -0.0202
    121  CD1        9.9950   37.9120    3.0510 C.ar  112  PHE112     -0.0042
    122  CD2        9.4050   38.0500    0.7410 C.ar  112  PHE112     -0.0042
    123  CE1        8.6440   37.8950    3.4040 C.ar  112  PHE112     -0.0003
    124  CE2        8.0480   38.0350    1.0840 C.ar  112  PHE112     -0.0003
    125  CZ         7.6710   37.9570    2.4180 C.ar  112  PHE112     -0.0000
    126  N         11.8100   34.8360    2.7050 N.am  113  LEU113     -0.1980
    127  CA        11.8730   34.0680    3.9500 C.3   113  LEU113      0.1596
    128  C         12.7620   32.8440    3.8020 C.2   113  LEU113      0.2287
    129  O         13.0700   32.1640    4.7870 O.2   113  LEU113     -0.2864
    130  CB        10.4770   33.6000    4.3630 C.3   113  LEU113      0.0297
    131  CG         9.4190   34.6390    4.7270 C.3   113  LEU113      0.0022
    132  CD1        8.1600   33.8960    5.1410 C.3   113  LEU113      0.0001
    133  CD2        9.9090   35.5480    5.8450 C.3   113  LEU113      0.0001
    134  N         13.4400   30.7100    7.3500 N.3   122  TYR122     -0.1241
    135  CA        12.4150   29.9810    8.0820 C.3   122  TYR122      0.1605
    136  C         12.2350   28.5720    7.5320 C.2   122  TYR122      0.2264
    137  O         12.1170   28.3720    6.3230 O.2   122  TYR122     -0.2867
    138  CB        11.1120   30.7850    8.0350 C.3   122  TYR122      0.0534
    139  CG        11.3060   32.1330    8.6860 C.ar  122  TYR122     -0.0201
    140  CD1       11.9340   33.1760    7.9960 C.ar  122  TYR122     -0.0009
    141  CD2       10.9740   32.3350   10.0280 C.ar  122  TYR122     -0.0009
    142  CE1       12.2330   34.3820    8.6280 C.ar  122  TYR122      0.0417
    143  CE2       11.2690   33.5390   10.6700 C.ar  122  TYR122      0.0417
    144  CZ        11.9000   34.5530    9.9630 C.ar  122  TYR122      0.1957
    145  OH        12.2080   35.7290   10.5940 O.3   122  TYR122     -0.2866
@<TRIPOS>BOND
     1   115   116    1
     2   122   124   ar
     3   122   120   ar
     4   124   125   ar
     5   116   119    1
     6   116   117    1
     7   119   120    1
     8   120   121   ar
     9    22    23    1
    10   125   123   ar
    11   117   126   am
    12   117   118    2
    13   126   127    1
    14    23    24    1
    15    23    26    1
    16    25    24    2
    17   121   123   ar
    18    24    33   am
    19    26    27    1
    20   128   127    1
    21   128   129    2
    22   127   130    1
    23    28    27   ar
    24    28    30   ar
    25   130   131    1
    26    27    29   ar
    27    33    34    1
    28    30    32   ar
    29   131   132    1
    30   131   133    1
    31    34    37    1
    32    34    35    1
    33    29    31   ar
    34    32    31   ar
    35    37    38    1
    36   137   136    2
    37    35    36    2
    38    38    39    1
    39   112   110   ar
    40   112   114   ar
    41   134   135    1
    42   110   109   ar
    43   136   135    1
    44   114   113   ar
    45   107   106    2
    46   140   142   ar
    47   140   139   ar
    48   138   135    1
    49   138   139    1
    50   106   105    1
    51    39    40    1
    52   142   144   ar
    53   139   141   ar
    54   109   108    1
    55   109   111   ar
    56   113   111   ar
    57   108   105    1
    58   105   104    1
    59   144   145    1
    60   144   143   ar
    61   141   143   ar
    62    41    42    1
    63    73    72    1
    64    21    19    1
    65    20    19    1
    66    14    13    2
    67    19    18    2
    68    13    12    1
    69    42    45    1
    70    42    43    1
    71    72    71    2
    72    72    74    1
    73    45    46    1
    74    18    17    1
    75    16    17    1
    76    16    15    1
    77    71    70    1
    78    48    47    2
    79    59    60    1
    80    43    44    2
    81    12    15    1
    82    12    11    1
    83    60    63    1
    84    60    61    1
    85    46    47    1
    86    47    49   am
    87    70    69    1
    88    69    68    1
    89    11     3   am
    90    61    64   am
    91    61    62    2
    92    64    65    1
    93    98    97    2
    94    97    96    1
    95     3     4    2
    96     3     2    1
    97    67    66    2
    98    68    65    1
    99     1     2    1
   100    78    77    2
   101    65    66    1
   102    66    75   am
   103     2     5    1
   104    77    76    1
   105    96    99    1
   106    96    95    1
   107     9     7   ar
   108     9    10   ar
   109    99   100    1
   110    75    76    1
   111     7     6   ar
   112    10     8   ar
   113    76    79    1
   114     6     8   ar
   115     6     5    1
   116   102   101    2
   117    87    86    1
   118    82    83    1
   119   100   101    1
   120   101   103   am
   121    91    90    2
   122    79    81    1
   123    79    80    1
   124    88    89    1
   125    84    83    1
   126    84    85    2
   127    83    86    1
   128    90    89    1
   129    89    92    1
   130    93    92    1
   131    92    94    1
   132    57    56    2
   133    55    56    1
   134    55    54    1
   135    56    58   am
   136    51    54    1
   137    51    50    1
   138    51    52    1
   139    52    53    2
