@<TRIPOS>MOLECULE
tmp/1vamC00.pdb
 87 83 0 0 0
SMALL
GASTEIGER

@<TRIPOS>ATOM
      1  N        -17.8080   33.2140   42.3290 N.3    12  TYR12      -0.1241
      2  CA       -19.0310   32.7540   42.9930 C.3    12  TYR12       0.1605
      3  C        -19.1000   31.2200   43.0460 C.2    12  TYR12       0.2264
      4  O        -19.0950   30.5490   42.0110 O.2    12  TYR12      -0.2867
      5  CB       -20.2580   33.3050   42.2530 C.3    12  TYR12       0.0534
      6  CG       -21.5510   33.0850   42.9920 C.ar   12  TYR12      -0.0201
      7  CD1      -21.9400   33.9520   44.0100 C.ar   12  TYR12      -0.0009
      8  CD2      -22.3250   31.9410   42.7630 C.ar   12  TYR12      -0.0009
      9  CE1      -23.0560   33.6800   44.7980 C.ar   12  TYR12       0.0417
     10  CE2      -23.4340   31.6620   43.5450 C.ar   12  TYR12       0.0417
     11  CZ       -23.7850   32.5360   44.5670 C.ar   12  TYR12       0.1957
     12  OH       -24.8190   32.2040   45.4040 O.3    12  TYR12      -0.2866
     13  N        -20.8080   27.9930   42.9980 N.3    14  ASN14      -0.1240
     14  CA       -22.0660   27.3160   42.6960 C.3    14  ASN14       0.1653
     15  C        -21.8030   25.8640   43.0340 C.2    14  ASN14       0.2266
     16  O        -21.4920   25.0650   42.1550 O.2    14  ASN14      -0.2867
     17  CB       -22.4270   27.4040   41.2190 C.3    14  ASN14       0.1155
     18  CG       -22.4470   28.8110   40.7130 C.2    14  ASN14       0.2627
     19  OD1      -21.4020   29.3900   40.4660 O.2    14  ASN14      -0.2716
     20  ND2      -23.6230   29.3790   40.5680 N.am   14  ASN14      -0.0877
     21  N        -23.6660   23.3800   43.6660 N.3    16  ASP16      -0.1239
     22  CA       -24.4880   22.3480   43.0590 C.3    16  ASP16       0.1674
     23  C        -23.8200   21.7020   41.8540 C.2    16  ASP16       0.2266
     24  O        -23.9740   20.5020   41.6560 O.2    16  ASP16      -0.2867
     25  CB       -25.8840   22.8690   42.7260 C.3    16  ASP16       0.1410
     26  CG       -25.8590   24.1470   41.9280 C.2    16  ASP16       0.3668
     27  OD1      -25.6940   25.2220   42.5370 O.co2  16  ASP16      -0.2456
     28  OD2      -26.0370   24.0780   40.6980 O.co2  16  ASP16      -0.2456
     29  N        -24.6200   37.3810   36.7940 N.3    98  GLY98      -0.1210
     30  CA       -25.9000   36.6950   36.8140 C.3    98  GLY98       0.1956
     31  C        -26.8210   37.3870   37.7950 C.2    98  GLY98       0.2612
     32  O        -27.0650   38.5830   37.6630 O.2    98  GLY98      -0.2717
     33  N        -27.3100   36.6550   38.7870 N.am   99  LEU99      -0.1965
     34  CA       -28.1950   37.2330   39.7910 C.3    99  LEU99       0.1728
     35  C        -27.3210   38.1340   40.6690 C.2    99  LEU99       0.2616
     36  O        -27.8170   39.0240   41.3530 O.2    99  LEU99      -0.2715
     37  CB       -28.8540   36.1030   40.5980 C.3    99  LEU99       0.0311
     38  CG       -29.9850   36.1820   41.6280 C.3    99  LEU99       0.0022
     39  CD1      -29.5810   36.9690   42.8400 C.3    99  LEU99       0.0001
     40  CD2      -31.2250   36.7170   41.0100 C.3    99  LEU99       0.0001
     41  N        -26.0180   37.8680   40.6690 N.am  100  TYR100     -0.1974
     42  CA       -25.0550   38.6540   41.4300 C.3   100  TYR100      0.1639
     43  C        -24.1210   39.3000   40.4160 C.2   100  TYR100      0.2290
     44  O        -24.0810   38.8670   39.2690 O.2   100  TYR100     -0.2864
     45  CB       -24.3050   37.7700   42.4170 C.3   100  TYR100      0.0560
     46  CG       -25.0700   37.5270   43.6890 C.ar  100  TYR100     -0.0198
     47  CD1      -25.5570   38.5950   44.4320 C.ar  100  TYR100     -0.0009
     48  CD2      -25.3220   36.2390   44.1500 C.ar  100  TYR100     -0.0009
     49  CE1      -26.2790   38.3960   45.6020 C.ar  100  TYR100      0.0417
     50  CE2      -26.0480   36.0200   45.3360 C.ar  100  TYR100      0.0417
     51  CZ       -26.5170   37.1160   46.0450 C.ar  100  TYR100      0.1957
     52  OH       -27.2130   36.9600   47.2120 O.3   100  TYR100     -0.2866
     53  N        -19.7690   38.1540   41.5400 N.3   207  ALA207     -0.1231
     54  CA       -19.9830   37.0510   40.6210 C.3   207  ALA207      0.1694
     55  C        -19.9710   37.6000   39.2070 C.2   207  ALA207      0.2592
     56  O        -20.2470   38.7750   39.0190 O.2   207  ALA207     -0.2718
     57  CB       -21.3170   36.3980   40.9060 C.3   207  ALA207      0.0304
     58  N        -19.6970   36.7660   38.2000 N.am  208  ASP208     -0.1974
     59  CA       -19.4090   35.3370   38.3720 C.3   208  ASP208      0.1709
     60  C        -17.9220   35.0160   38.2800 C.2   208  ASP208      0.2293
     61  O        -17.4250   34.1570   39.0140 O.2   208  ASP208     -0.2864
     62  CB       -20.2070   34.5020   37.3650 C.3   208  ASP208      0.1436
     63  CG       -21.6370   34.2530   37.8200 C.2   208  ASP208      0.3671
     64  OD1      -22.5050   35.1040   37.5680 O.co2 208  ASP208     -0.2456
     65  OD2      -21.8970   33.2130   38.4520 O.co2 208  ASP208     -0.2456
     66  N        -24.8880   33.0410   30.7360 N.3   226  THR226     -0.1203
     67  CA       -24.5340   34.0700   31.7020 C.3   226  THR226      0.1994
     68  C        -24.3350   33.3360   33.0430 C.2   226  THR226      0.2618
     69  O        -24.3110   32.1080   33.0760 O.2   226  THR226     -0.2717
     70  CB       -25.6490   35.1270   31.8570 C.3   226  THR226      0.1784
     71  OG1      -26.8540   34.4800   32.2570 O.3   226  THR226     -0.2211
     72  CG2      -25.8980   35.8620   30.5540 C.3   226  THR226      0.0376
     73  N        -24.1810   34.0690   34.1390 N.am  227  GLY227     -0.1942
     74  CA       -24.0080   33.4170   35.4230 C.3   227  GLY227      0.2014
     75  C        -22.9140   32.3580   35.5230 C.2   227  GLY227      0.2638
     76  O        -21.8260   32.5140   34.9590 O.2   227  GLY227     -0.2714
     77  N        -23.2050   31.2920   36.2670 N.am  228  ARG228     -0.1977
     78  CA       -22.2870   30.1710   36.5010 C.3   228  ARG228      0.1597
     79  C        -21.5200   29.5970   35.2960 C.2   228  ARG228      0.2287
     80  O        -20.5000   28.9450   35.4820 O.2   228  ARG228     -0.2864
     81  CB       -23.0160   29.0260   37.2390 C.3   228  ARG228      0.0334
     82  CG       -24.4060   28.6970   36.6770 C.3   228  ARG228      0.0492
     83  CD       -24.6480   27.2300   36.3430 C.3   228  ARG228      0.2205
     84  NE       -25.3650   26.4940   37.3900 N.pl3 228  ARG228     -0.0865
     85  CZ       -26.3310   25.6050   37.1550 C.cat 228  ARG228      0.5346
     86  NH1      -26.7230   25.3440   35.9100 N.pl3 228  ARG228      0.1354
     87  NH2      -26.8500   24.9050   38.1570 N.pl3 228  ARG228      0.1354
@<TRIPOS>BOND
     1    72    70    1
     2    66    67    1
     3    67    70    1
     4    67    68    1
     5    70    71    1
     6    68    69    2
     7    68    73   am
     8    73    74    1
     9    76    75    2
    10    79    80    2
    11    79    78    1
    12    74    75    1
    13    75    77   am
    14    86    85    1
    15    77    78    1
    16    83    82    1
    17    83    84    1
    18    78    81    1
    19    82    81    1
    20    29    30    1
    21    30    31    1
    22    85    84    2
    23    85    87    1
    24    62    63    1
    25    62    59    1
    26    64    63   ar
    27    32    31    2
    28    31    33   am
    29    63    65   ar
    30    58    59    1
    31    58    55   am
    32    60    59    1
    33    60    61    2
    34    33    34    1
    35    56    55    2
    36    55    54    1
    37    44    43    2
    38    34    37    1
    39    34    35    1
    40    43    42    1
    41    19    18    2
    42    20    18   am
    43    37    38    1
    44    54    57    1
    45    54    53    1
    46    41    35   am
    47    41    42    1
    48    35    36    2
    49    28    26   ar
    50    18    17    1
    51    40    38    1
    52    17    14    1
    53    42    45    1
    54    38    39    1
    55    24    23    2
    56    23    22    1
    57    26    27   ar
    58    26    25    1
    59     4     3    2
    60    16    15    2
    61     5     6    1
    62     5     2    1
    63     1     2    1
    64    45    46    1
    65    14    13    1
    66    14    15    1
    67    25    22    1
    68     8     6   ar
    69     8    10   ar
    70     6     7   ar
    71     2     3    1
    72    22    21    1
    73    10    11   ar
    74    46    48   ar
    75    46    47   ar
    76     7     9   ar
    77    48    50   ar
    78    47    49   ar
    79    11     9   ar
    80    11    12    1
    81    50    51   ar
    82    49    51   ar
    83    51    52    1
