@<TRIPOS>MOLECULE
tmp/1vb3A00.pdb
 130 120 0 0 0
SMALL
GASTEIGER

@<TRIPOS>ATOM
      1  N         -7.5560   56.2690   17.4290 N.3   106  PHE106     -0.1227
      2  CA        -7.7740   56.3020   15.9860 C.3   106  PHE106      0.1736
      3  C         -8.1250   54.9490   15.3800 C.2   106  PHE106      0.2595
      4  O         -8.5640   54.8740   14.2310 O.2   106  PHE106     -0.2718
      5  CB        -6.5570   56.8880   15.2580 C.3   106  PHE106      0.0547
      6  CG        -5.3630   55.9780   15.2190 C.ar  106  PHE106     -0.0202
      7  CD1       -4.5320   55.8490   16.3250 C.ar  106  PHE106     -0.0042
      8  CD2       -5.0500   55.2700   14.0580 C.ar  106  PHE106     -0.0042
      9  CE1       -3.4020   55.0360   16.2780 C.ar  106  PHE106     -0.0003
     10  CE2       -3.9230   54.4530   14.0010 C.ar  106  PHE106     -0.0003
     11  CZ        -3.0960   54.3370   15.1130 C.ar  106  PHE106     -0.0000
     12  N         -7.9410   53.8830   16.1510 N.am  107  LYS107     -0.1980
     13  CA        -8.2550   52.5450   15.6730 C.3   107  LYS107      0.1596
     14  C         -9.7490   52.4290   15.4090 C.2   107  LYS107      0.2287
     15  O        -10.2030   51.5060   14.7340 O.2   107  LYS107     -0.2864
     16  CB        -7.8220   51.5060   16.7050 C.3   107  LYS107      0.0298
     17  CG        -6.3400   51.5390   16.9930 C.3   107  LYS107      0.0038
     18  CD        -5.5390   51.1020   15.7830 C.3   107  LYS107      0.0206
     19  CE        -4.0740   51.4330   15.9690 C.3   107  LYS107      0.1093
     20  NZ        -3.6800   51.3350   17.3930 N.3   107  LYS107     -0.1314
     21  N         -4.2160   41.0930   17.5030 N.3   132  ALA132     -0.1231
     22  CA        -3.1710   41.3260   18.4950 C.3   132  ALA132      0.1694
     23  C         -3.2000   42.8170   18.8010 C.2   132  ALA132      0.2593
     24  O         -3.3630   43.6360   17.8930 O.2   132  ALA132     -0.2718
     25  CB        -1.8150   40.9310   17.9380 C.3   132  ALA132      0.0304
     26  N         -3.0590   43.1760   20.0710 N.am  133  THR133     -0.1939
     27  CA        -3.0910   44.5830   20.4440 C.3   133  THR133      0.2028
     28  C         -2.0570   44.9420   21.4930 C.2   133  THR133      0.2642
     29  O         -1.6290   44.0990   22.2820 O.2   133  THR133     -0.2714
     30  CB        -4.4750   44.9910   20.9860 C.3   133  THR133      0.1808
     31  OG1       -4.4970   46.4030   21.2270 O.3   133  THR133     -0.2208
     32  CG2       -4.7780   44.2570   22.2850 C.3   133  THR133      0.0379
     33  N         -1.6630   46.2110   21.4890 N.am  134  SER134     -0.1949
     34  CA        -0.6990   46.7280   22.4410 C.3   134  SER134      0.1924
     35  C         -1.4150   47.7700   23.2940 C.2   134  SER134      0.2314
     36  O         -0.7830   48.5380   24.0220 O.2   134  SER134     -0.2863
     37  CB         0.4850   47.3670   21.7120 C.3   134  SER134      0.2116
     38  OG         0.0680   48.4810   20.9470 O.3   134  SER134     -0.2180
     39  N         -4.7520   49.8760   22.2120 N.3   136  ASP136     -0.1225
     40  CA        -5.9420   50.4690   21.6090 C.3   136  ASP136      0.1805
     41  C         -6.7250   49.6460   20.5870 C.2   136  ASP136      0.2598
     42  O         -7.9500   49.5430   20.6830 O.2   136  ASP136     -0.2718
     43  CB        -5.5680   51.8180   21.0010 C.3   136  ASP136      0.1424
     44  CG        -4.9850   52.7670   22.0270 C.2   136  ASP136      0.3668
     45  OD1       -5.6190   52.9510   23.0870 O.co2 136  ASP136     -0.2456
     46  OD2       -3.8990   53.3300   21.7770 O.co2 136  ASP136     -0.2456
     47  N         -6.0320   49.0740   19.6080 N.am  137  THR137     -0.1953
     48  CA        -6.6860   48.2760   18.5760 C.3   137  THR137      0.1897
     49  C         -7.6660   47.2680   19.1630 C.2   137  THR137      0.2313
     50  O         -8.7700   47.0880   18.6440 O.2   137  THR137     -0.2863
     51  CB        -5.6600   47.5160   17.7160 C.3   137  THR137      0.1794
     52  OG1       -4.8340   48.4570   17.0210 O.3   137  THR137     -0.2208
     53  CG2       -6.3720   46.6270   16.7000 C.3   137  THR137      0.0378
     54  N          4.1850   42.7260   22.6050 N.3   186  PHE186     -0.1241
     55  CA         3.2850   42.8410   21.4590 C.3   186  PHE186      0.1605
     56  C          3.7380   41.9960   20.2740 C.2   186  PHE186      0.2264
     57  O          2.9530   41.2380   19.7070 O.2   186  PHE186     -0.2867
     58  CB         3.1660   44.2930   20.9980 C.3   186  PHE186      0.0534
     59  CG         2.3890   44.4490   19.7200 C.ar  186  PHE186     -0.0203
     60  CD1        1.0200   44.2010   19.6890 C.ar  186  PHE186     -0.0042
     61  CD2        3.0350   44.7850   18.5340 C.ar  186  PHE186     -0.0042
     62  CE1        0.3050   44.2810   18.4920 C.ar  186  PHE186     -0.0003
     63  CE2        2.3310   44.8680   17.3350 C.ar  186  PHE186     -0.0003
     64  CZ         0.9640   44.6130   17.3150 C.ar  186  PHE186     -0.0000
     65  N          1.5490   39.4880   17.9430 N.3   190  GLN190     -0.1245
     66  CA         1.2600   39.6040   16.5210 C.3   190  GLN190      0.1566
     67  C          1.7660   38.3790   15.7620 C.2   190  GLN190      0.2260
     68  O          1.1580   37.9520   14.7810 O.2   190  GLN190     -0.2867
     69  CB         1.8940   40.8780   15.9480 C.3   190  GLN190      0.0367
     70  CG         1.3760   41.2430   14.5670 C.3   190  GLN190      0.0905
     71  CD         1.8210   42.6210   14.1020 C.2   190  GLN190      0.2608
     72  OE1        1.3500   43.1210   13.0800 O.2   190  GLN190     -0.2717
     73  NE2        2.7290   43.2390   14.8480 N.am  190  GLN190     -0.0878
     74  N         -6.3800   43.5260   12.6190 N.3   212  ASN212     -0.1225
     75  CA        -5.1860   44.3520   12.7420 C.3   212  ASN212      0.1785
     76  C         -5.0280   45.0970   11.4270 C.2   212  ASN212      0.2597
     77  O         -5.7680   44.8420   10.4800 O.2   212  ASN212     -0.2718
     78  CB        -3.9390   43.4980   12.9900 C.3   212  ASN212      0.1169
     79  CG        -3.8980   42.9180   14.3840 C.2   212  ASN212      0.2627
     80  OD1       -4.3950   41.8200   14.6300 O.2   212  ASN212     -0.2716
     81  ND2       -3.3100   43.6630   15.3120 N.am  212  ASN212     -0.0877
     82  N         -4.0680   46.0130   11.3630 N.am  213  SER213     -0.1952
     83  CA        -3.8430   46.7670   10.1340 C.3   213  SER213      0.1924
     84  C         -3.5210   45.7970    8.9980 C.2   213  SER213      0.2314
     85  O         -3.4590   46.1880    7.8310 O.2   213  SER213     -0.2863
     86  CB        -2.6990   47.7660   10.3210 C.3   213  SER213      0.2116
     87  OG        -1.4850   47.0980   10.5910 O.3   213  SER213     -0.2180
     88  N         -8.4920   48.0100    7.0860 N.3   218  ARG218     -0.1245
     89  CA        -7.9750   48.8330    8.1760 C.3   218  ARG218      0.1563
     90  C         -7.0730   49.9190    7.6030 C.2   218  ARG218      0.2260
     91  O         -7.2250   51.1030    7.8980 O.2   218  ARG218     -0.2867
     92  CB        -7.1650   47.9740    9.1530 C.3   218  ARG218      0.0307
     93  CG        -7.9600   47.4050   10.3160 C.3   218  ARG218      0.0489
     94  CD        -8.4070   48.5130   11.2550 C.3   218  ARG218      0.2205
     95  NE        -7.2780   49.3190   11.7150 N.pl3 218  ARG218     -0.0865
     96  CZ        -6.3190   48.8740   12.5210 C.cat 218  ARG218      0.5346
     97  NH1       -6.3490   47.6260   12.9690 N.pl3 218  ARG218      0.1354
     98  NH2       -5.3220   49.6760   12.8720 N.pl3 218  ARG218      0.1354
     99  N          3.7430   50.0250   15.1250 N.3   249  ASN249     -0.1240
    100  CA         3.6180   48.9570   14.1390 C.3   249  ASN249      0.1653
    101  C          3.5920   49.5730   12.7320 C.2   249  ASN249      0.2266
    102  O          3.5570   48.8600   11.7280 O.2   249  ASN249     -0.2867
    103  CB         2.3420   48.1510   14.4070 C.3   249  ASN249      0.1155
    104  CG         2.3080   46.8360   13.6500 C.2   249  ASN249      0.2627
    105  OD1        3.2750   46.0710   13.6650 O.2   249  ASN249     -0.2716
    106  ND2        1.1860   46.5590   12.9980 N.am  249  ASN249     -0.0877
    107  N          1.2820   51.2180   10.9180 N.3   251  GLY251     -0.1225
    108  CA         0.1490   51.1700   10.0140 C.3   251  GLY251      0.1811
    109  C         -0.3960   52.5650    9.7550 C.2   251  GLY251      0.2280
    110  O         -0.9390   52.8520    8.6870 O.2   251  GLY251     -0.2866
    111  N          1.5600   51.4960   23.6000 N.3   300  ALA300     -0.1245
    112  CA         0.9520   51.1120   22.3320 C.3   300  ALA300      0.1562
    113  C          2.0090   51.1470   21.2280 C.2   300  ALA300      0.2260
    114  O          1.8200   50.5680   20.1570 O.2   300  ALA300     -0.2867
    115  CB        -0.2100   52.0480   21.9920 C.3   300  ALA300      0.0290
    116  N          6.7710   48.4010   19.9600 N.3   303  VAL303     -0.1245
    117  CA         6.8810   47.4280   18.8820 C.3   303  VAL303      0.1561
    118  C          8.3150   47.4730   18.3660 C.2   303  VAL303      0.2260
    119  O          8.8300   48.5470   18.0570 O.2   303  VAL303     -0.2867
    120  CB         5.9150   47.7850   17.7220 C.3   303  VAL303      0.0252
    121  CG1        5.9580   46.7110   16.6490 C.3   303  VAL303      0.0019
    122  CG2        4.4980   47.9560   18.2590 C.3   303  VAL303      0.0019
    123  N          4.0380   46.4880    9.3690 N.3   308  ASN308     -0.1240
    124  CA         3.6840   47.2690    8.1850 C.3   308  ASN308      0.1653
    125  C          4.8550   47.9450    7.4800 C.2   308  ASN308      0.2266
    126  O          4.6640   48.5980    6.4550 O.2   308  ASN308     -0.2867
    127  CB         2.6480   48.3340    8.5440 C.3   308  ASN308      0.1155
    128  CG         1.2860   47.7460    8.8230 C.2   308  ASN308      0.2627
    129  OD1        0.6970   47.0810    7.9690 O.2   308  ASN308     -0.2716
    130  ND2        0.7760   47.9860   10.0230 N.am  308  ASN308     -0.0877
@<TRIPOS>BOND
     1   126   125    2
     2    88    89    1
     3   125   124    1
     4    90    91    2
     5    90    89    1
     6    85    84    2
     7   129   128    2
     8    89    92    1
     9   124   127    1
    10   124   123    1
    11   127   128    1
    12   110   109    2
    13   128   130   am
    14    84    83    1
    15    92    93    1
    16   109   108    1
    17   108   107    1
    18    83    86    1
    19    83    82    1
    20    93    94    1
    21    86    87    1
    22    77    76    2
    23    94    95    1
    24    82    76   am
    25    76    75    1
    26    95    96    2
    27   102   101    2
    28    96    98    1
    29    96    97    1
    30    74    75    1
    31   101   100    1
    32    75    78    1
    33    78    79    1
    34   106   104   am
    35    72    71    2
    36   104   105    2
    37   104   103    1
    38    10     8   ar
    39    10    11   ar
    40     8     6   ar
    41    71    70    1
    42    71    73   am
    43   100   103    1
    44   100    99    1
    45     4     3    2
    46    79    80    2
    47    79    81   am
    48    70    69    1
    49    15    14    2
    50    68    67    2
    51    11     9   ar
    52     6     5    1
    53     6     7   ar
    54     5     2    1
    55     3     2    1
    56     3    12   am
    57    14    13    1
    58    13    12    1
    59    13    16    1
    60    67    66    1
    61    18    19    1
    62    18    17    1
    63    69    66    1
    64    19    20    1
    65     2     1    1
    66     9     7   ar
    67    66    65    1
    68   121   120    1
    69    53    51    1
    70    16    17    1
    71    52    51    1
    72    64    63   ar
    73    64    62   ar
    74    63    61   ar
    75    21    22    1
    76    51    48    1
    77   120   122    1
    78   120   117    1
    79    24    23    2
    80    25    22    1
    81   119   118    2
    82   118   117    1
    83    62    60   ar
    84    22    23    1
    85    61    59   ar
    86    48    49    1
    87    48    47    1
    88    50    49    2
    89    23    26   am
    90   117   116    1
    91    47    41   am
    92    60    59   ar
    93    57    56    2
    94    59    58    1
    95    26    27    1
    96   114   113    2
    97    56    55    1
    98    27    30    1
    99    27    28    1
   100    41    42    2
   101    41    40    1
   102    38    37    1
   103    30    31    1
   104    30    32    1
   105    58    55    1
   106    43    40    1
   107    43    44    1
   108   113   112    1
   109    55    54    1
   110    33    28   am
   111    33    34    1
   112    28    29    2
   113    40    39    1
   114    37    34    1
   115    46    44   ar
   116   115   112    1
   117    44    45   ar
   118   112   111    1
   119    34    35    1
   120    35    36    2
