@<TRIPOS>MOLECULE
tmp/1vb9B00.pdb
 238 235 0 0 0
SMALL
GASTEIGER

@<TRIPOS>ATOM
      1  N         19.1500   -8.1830   45.0160 N.3   164  HIS164     -0.1241
      2  CA        19.0840   -7.1210   46.0130 C.3   164  HIS164      0.1621
      3  C         19.1060   -7.6300   47.4550 C.2   164  HIS164      0.2264
      4  O         19.3490   -6.8590   48.3820 O.2   164  HIS164     -0.2867
      5  CB        17.8460   -6.2370   45.7840 C.3   164  HIS164      0.0745
      6  CG        16.5600   -6.8370   46.2680 C.ar  164  HIS164      0.0817
      7  ND1       16.0850   -8.0520   45.8200 N.ar  164  HIS164     -0.2268
      8  CD2       15.6340   -6.3700   47.1400 C.ar  164  HIS164      0.1154
      9  CE1       14.9220   -8.3060   46.3940 C.ar  164  HIS164      0.1986
     10  NE2       14.6250   -7.3010   47.1990 N.ar  164  HIS164     -0.2212
     11  N         20.1150   -5.6980   56.4180 N.3   200  SER200     -0.1202
     12  CA        20.3870   -5.8510   54.9830 C.3   200  SER200      0.2020
     13  C         21.8550   -6.1690   54.6730 C.2   200  SER200      0.2619
     14  O         22.6910   -6.2060   55.5720 O.2   200  SER200     -0.2717
     15  CB        19.9810   -4.5750   54.2380 C.3   200  SER200      0.2103
     16  OG        20.7180   -3.4560   54.7050 O.3   200  SER200     -0.2182
     17  N         22.1590   -6.3970   53.3950 N.am  201  HIS201     -0.1961
     18  CA        23.5270   -6.6980   52.9740 C.3   201  HIS201      0.1787
     19  C         24.3400   -5.4140   52.7830 C.2   201  HIS201      0.2620
     20  O         25.5740   -5.4380   52.8350 O.2   201  HIS201     -0.2715
     21  CB        23.5430   -7.4770   51.6510 C.3   201  HIS201      0.0785
     22  CG        23.2250   -6.6390   50.4480 C.ar  201  HIS201      0.0821
     23  ND1       21.9420   -6.4720   49.9710 N.ar  201  HIS201     -0.2267
     24  CD2       24.0250   -5.9070   49.6350 C.ar  201  HIS201      0.1154
     25  CE1       21.9670   -5.6760   48.9160 C.ar  201  HIS201      0.1986
     26  NE2       23.2190   -5.3190   48.6910 N.ar  201  HIS201     -0.2212
     27  N         23.6470   -4.3020   52.5500 N.am  202  HIS202     -0.1973
     28  CA        24.3110   -3.0180   52.3300 C.3   202  HIS202      0.1656
     29  C         24.4390   -2.2100   53.6180 C.2   202  HIS202      0.2291
     30  O         25.3360   -1.3750   53.7480 O.2   202  HIS202     -0.2864
     31  CB        23.5630   -2.2200   51.2600 C.3   202  HIS202      0.0771
     32  CG        22.1140   -2.0080   51.5650 C.ar  202  HIS202      0.0820
     33  ND1       21.6760   -1.1230   52.5260 N.ar  202  HIS202     -0.2267
     34  CD2       21.0020   -2.5700   51.0360 C.ar  202  HIS202      0.1154
     35  CE1       20.3550   -1.1460   52.5740 C.ar  202  HIS202      0.1986
     36  NE2       19.9220   -2.0160   51.6790 N.ar  202  HIS202     -0.2212
     37  N         22.5900    0.2500   54.9390 N.3   204  TYR204     -0.1227
     38  CA        22.2690    1.6740   54.9820 C.3   204  TYR204      0.1736
     39  C         21.0180    1.9450   55.8260 C.2   204  TYR204      0.2595
     40  O         20.6710    3.0990   56.0920 O.2   204  TYR204     -0.2718
     41  CB        22.1130    2.2310   53.5640 C.3   204  TYR204      0.0548
     42  CG        23.4450    2.6000   52.9430 C.ar  204  TYR204     -0.0200
     43  CD1       24.0830    3.7990   53.2700 C.ar  204  TYR204     -0.0009
     44  CD2       24.0870    1.7330   52.0590 C.ar  204  TYR204     -0.0009
     45  CE1       25.3340    4.1250   52.7260 C.ar  204  TYR204      0.0417
     46  CE2       25.3240    2.0450   51.5160 C.ar  204  TYR204      0.0417
     47  CZ        25.9440    3.2420   51.8490 C.ar  204  TYR204      0.1957
     48  OH        27.1620    3.5450   51.2820 O.3   204  TYR204     -0.2866
     49  N         20.3440    0.8740   56.2410 N.am  205  ASP205     -0.1974
     50  CA        19.1670    0.9780   57.0970 C.3   205  ASP205      0.1709
     51  C         19.6330    0.5200   58.4760 C.2   205  ASP205      0.2293
     52  O         19.4320   -0.6250   58.8800 O.2   205  ASP205     -0.2864
     53  CB        18.0100    0.1080   56.5630 C.3   205  ASP205      0.1436
     54  CG        18.4340   -1.3170   56.2130 C.2   205  ASP205      0.3671
     55  OD1       19.5710   -1.5200   55.7360 O.co2 205  ASP205     -0.2456
     56  OD2       17.6100   -2.2400   56.3920 O.co2 205  ASP205     -0.2456
     57  N         19.1500    9.3180   57.3770 N.3   244  HIS244     -0.1241
     58  CA        18.0270    8.4680   57.7270 C.3   244  HIS244      0.1621
     59  C         18.5120    7.2770   58.5280 C.2   244  HIS244      0.2264
     60  O         19.6620    6.8490   58.3910 O.2   244  HIS244     -0.2867
     61  CB        17.3250    7.9960   56.4520 C.3   244  HIS244      0.0745
     62  CG        18.2640    7.4810   55.4070 C.ar  244  HIS244      0.0817
     63  ND1       18.8290    6.2240   55.4650 N.ar  244  HIS244     -0.2268
     64  CD2       18.7690    8.0700   54.2970 C.ar  244  HIS244      0.1154
     65  CE1       19.6400    6.0600   54.4340 C.ar  244  HIS244      0.1986
     66  NE2       19.6230    7.1670   53.7110 N.ar  244  HIS244     -0.2212
     67  N         13.9580    7.9090   52.9940 N.3   286  PHE286     -0.1227
     68  CA        14.9740    8.1830   51.9990 C.3   286  PHE286      0.1736
     69  C         14.2450    7.9470   50.6790 C.2   286  PHE286      0.2595
     70  O         13.4010    7.0500   50.5860 O.2   286  PHE286     -0.2718
     71  CB        16.1490    7.2030   52.1340 C.3   286  PHE286      0.0547
     72  CG        16.9050    6.9830   50.8510 C.ar  286  PHE286     -0.0202
     73  CD1       16.6860    5.8370   50.0870 C.ar  286  PHE286     -0.0042
     74  CD2       17.7950    7.9400   50.3810 C.ar  286  PHE286     -0.0042
     75  CE1       17.3410    5.6500   48.8710 C.ar  286  PHE286     -0.0003
     76  CE2       18.4580    7.7670   49.1630 C.ar  286  PHE286     -0.0003
     77  CZ        18.2300    6.6190   48.4050 C.ar  286  PHE286     -0.0000
     78  N         14.5480    8.7600   49.6740 N.am  287  ALA287     -0.1980
     79  CA        13.9190    8.6230   48.3700 C.3   287  ALA287      0.1597
     80  C         12.3870    8.5800   48.4700 C.2   287  ALA287      0.2287
     81  O         11.7830    9.3020   49.2690 O.2   287  ALA287     -0.2864
     82  CB        14.4470    7.3650   47.6760 C.3   287  ALA287      0.0319
     83  N          8.9550    6.4450   49.2760 N.3   289  GLN289     -0.1231
     84  CA         8.3720    5.2980   49.9560 C.3   289  GLN289      0.1698
     85  C          9.3490    4.1580   50.2220 C.2   289  GLN289      0.2592
     86  O          9.1980    3.0600   49.6820 O.2   289  GLN289     -0.2718
     87  CB         7.1850    4.7650   49.1510 C.3   289  GLN289      0.0381
     88  CG         6.0260    5.7320   49.0440 C.3   289  GLN289      0.0905
     89  CD         4.8820    5.1580   48.2340 C.2   289  GLN289      0.2608
     90  OE1        4.3380    4.1040   48.5710 O.2   289  GLN289     -0.2717
     91  NE2        4.5130    5.8440   47.1560 N.am  289  GLN289     -0.0878
     92  N         10.3560    4.4270   51.0430 N.am  290  VAL290     -0.1966
     93  CA        11.3350    3.4140   51.4100 C.3   290  VAL290      0.1712
     94  C         11.1370    3.2170   52.9100 C.2   290  VAL290      0.2458
     95  O         11.8150    3.8410   53.7270 O.2   290  VAL290     -0.2730
     96  CB        12.7790    3.8780   51.1150 C.3   290  VAL290      0.0289
     97  CG1       13.7720    2.8200   51.5910 C.3   290  VAL290      0.0023
     98  CG2       12.9540    4.1130   49.6180 C.3   290  VAL290      0.0023
     99  N         10.1890    2.3370   53.2840 N.am  291  PRO291     -0.2716
    100  CA         9.8300    2.0110   54.6690 C.3   291  PRO291      0.1536
    101  C         10.9790    1.6740   55.6120 C.2   291  PRO291      0.2598
    102  O         10.9290    2.0020   56.7960 O.2   291  PRO291     -0.2715
    103  CB         8.8490    0.8470   54.5070 C.3   291  PRO291      0.0310
    104  CG         9.3160    0.1910   53.2450 C.3   291  PRO291      0.0237
    105  CD         9.5660    1.3760   52.3540 C.3   291  PRO291      0.0939
    106  N         12.0120    1.0270   55.0910 N.am  292  ALA292     -0.1964
    107  CA        13.1530    0.6450   55.9120 C.3   292  ALA292      0.1728
    108  C         14.0530    1.8200   56.2870 C.2   292  ALA292      0.2616
    109  O         14.9080    1.6860   57.1680 O.2   292  ALA292     -0.2715
    110  CB        13.9730   -0.4190   55.1910 C.3   292  ALA292      0.0334
    111  N         13.8640    2.9710   55.6410 N.am  293  MET293     -0.1977
    112  CA        14.7210    4.1160   55.9290 C.3   293  MET293      0.1605
    113  C         14.0350    5.4410   56.2620 C.2   293  MET293      0.2287
    114  O         14.0100    6.3550   55.4390 O.2   293  MET293     -0.2864
    115  CB        15.6920    4.3300   54.7590 C.3   293  MET293      0.0413
    116  CG        16.5030    3.0940   54.4250 C.3   293  MET293      0.0598
    117  SD        17.7460    3.3430   53.1570 S.3   293  MET293     -0.1393
    118  CE        16.8510    3.0620   51.7340 C.3   293  MET293      0.0692
    119  N         32.6350    9.3900   55.4300 N.3   323  ARG323     -0.1245
    120  CA        32.0330    9.4980   54.1030 C.3   323  ARG323      0.1563
    121  C         30.5990    9.7730   54.5620 C.2   323  ARG323      0.2260
    122  O         30.0370    8.9850   55.3270 O.2   323  ARG323     -0.2867
    123  CB        32.1010    8.1570   53.3720 C.3   323  ARG323      0.0307
    124  CG        32.0340    8.2070   51.8400 C.3   323  ARG323      0.0489
    125  CD        30.6780    8.6130   51.2470 C.3   323  ARG323      0.2205
    126  NE        29.5290    7.8710   51.7580 N.pl3 323  ARG323     -0.0865
    127  CZ        28.5810    7.3090   51.0020 C.cat 323  ARG323      0.5346
    128  NH1       27.5620    6.6710   51.5710 N.pl3 323  ARG323      0.1354
    129  NH2       28.6590    7.3490   49.6810 N.pl3 323  ARG323      0.1354
    130  N         26.7600    9.8860   53.9120 N.3   325  ASN325     -0.1225
    131  CA        25.6640    9.4030   53.0640 C.3   325  ASN325      0.1785
    132  C         24.5810   10.4670   52.8460 C.2   325  ASN325      0.2597
    133  O         24.1490   11.1210   53.7890 O.2   325  ASN325     -0.2718
    134  CB        25.0500    8.1510   53.7060 C.3   325  ASN325      0.1169
    135  CG        24.0060    7.4860   52.8320 C.2   325  ASN325      0.2627
    136  OD1       22.9230    7.1290   53.3090 O.2   325  ASN325     -0.2716
    137  ND2       24.3260    7.3020   51.5450 N.am  325  ASN325     -0.0877
    138  N         24.1460   10.6260   51.5970 N.am  326  VAL326     -0.1980
    139  CA        23.1150   11.6050   51.2380 C.3   326  VAL326      0.1595
    140  C         23.3160   12.9100   52.0040 C.2   326  VAL326      0.2287
    141  O         22.3570   13.5190   52.4880 O.2   326  VAL326     -0.2864
    142  CB        21.6900   11.0660   51.5410 C.3   326  VAL326      0.0276
    143  CG1       20.6470   11.9090   50.7990 C.3   326  VAL326      0.0022
    144  CG2       21.5840    9.5920   51.1260 C.3   326  VAL326      0.0022
    145  N         23.8070   15.9140   51.1910 N.3   328  ASN328     -0.1225
    146  CA        23.0550   17.0920   50.7690 C.3   328  ASN328      0.1785
    147  C         21.6130   17.1750   51.2750 C.2   328  ASN328      0.2597
    148  O         20.9200   18.1550   51.0100 O.2   328  ASN328     -0.2718
    149  CB        23.0810   17.2320   49.2340 C.3   328  ASN328      0.1169
    150  CG        22.6690   15.9620   48.5040 C.2   328  ASN328      0.2627
    151  OD1       22.4830   15.9820   47.2860 O.2   328  ASN328     -0.2716
    152  ND2       22.5390   14.8550   49.2300 N.am  328  ASN328     -0.0877
    153  N         21.1580   16.1690   52.0130 N.am  329  GLU329     -0.1979
    154  CA        19.7880   16.2020   52.5220 C.3   329  GLU329      0.1602
    155  C         19.7610   16.3830   54.0400 C.2   329  GLU329      0.2287
    156  O         18.7210   16.2800   54.6850 O.2   329  GLU329     -0.2864
    157  CB        19.0240   14.9540   52.0540 C.3   329  GLU329      0.0415
    158  CG        18.8460   14.9580   50.5240 C.3   329  GLU329      0.1163
    159  CD        18.0840   13.7600   49.9730 C.2   329  GLU329      0.3649
    160  OE1       17.1060   13.3200   50.6050 O.co2 329  GLU329     -0.2457
    161  OE2       18.4550   13.2690   48.8850 O.co2 329  GLU329     -0.2457
    162  N         28.8680   12.7810   50.3640 N.3   354  GLU354     -0.1245
    163  CA        28.3750   12.0820   49.1870 C.3   354  GLU354      0.1567
    164  C         27.3000   12.9710   48.5790 C.2   354  GLU354      0.2260
    165  O         26.1870   13.0640   49.0980 O.2   354  GLU354     -0.2867
    166  CB        27.7590   10.7230   49.5310 C.3   354  GLU354      0.0388
    167  CG        27.4260    9.8880   48.2770 C.3   354  GLU354      0.1160
    168  CD        26.1200    9.1110   48.3910 C.2   354  GLU354      0.3649
    169  OE1       25.6330    8.9320   49.5220 O.co2 354  GLU354     -0.2457
    170  OE2       25.5870    8.6660   47.3480 O.co2 354  GLU354     -0.2457
    171  N         26.1610   14.0850   44.4530 N.3   356  TRP356     -0.1227
    172  CA        26.4140   13.8400   43.0390 C.3   356  TRP356      0.1737
    173  C         26.3780   15.0580   42.1210 C.2   356  TRP356      0.2595
    174  O         26.8400   14.9800   40.9820 O.2   356  TRP356     -0.2718
    175  CB        25.4290   12.7860   42.5170 C.3   356  TRP356      0.0564
    176  CG        25.5150   11.4540   43.2090 C.ar  356  TRP356      0.0003
    177  CD1       25.5930   11.2280   44.5580 C.ar  356  TRP356      0.0946
    178  CD2       25.4270   10.1620   42.5940 C.ar  356  TRP356      0.0152
    179  NE1       25.5510    9.8810   44.8170 N.ar  356  TRP356     -0.2442
    180  CE2       25.4490    9.2010   43.6310 C.ar  356  TRP356      0.0810
    181  CE3       25.3270    9.7210   41.2650 C.ar  356  TRP356      0.0012
    182  CZ2       25.3720    7.8230   43.3820 C.ar  356  TRP356      0.0191
    183  CZ3       25.2500    8.3500   41.0170 C.ar  356  TRP356      0.0001
    184  CH2       25.2740    7.4190   42.0730 C.ar  356  TRP356      0.0015
    185  N         25.8310   16.1760   42.5900 N.am  357  HIS357     -0.1975
    186  CA        25.7750   17.3730   41.7480 C.3   357  HIS357      0.1656
    187  C         26.7410   18.4440   42.2440 C.2   357  HIS357      0.2291
    188  O         27.6190   18.1660   43.0560 O.2   357  HIS357     -0.2864
    189  CB        24.3400   17.9380   41.6880 C.3   357  HIS357      0.0771
    190  CG        23.7650   18.2920   43.0250 C.ar  357  HIS357      0.0820
    191  ND1       23.3310   17.3420   43.9240 N.ar  357  HIS357     -0.2267
    192  CD2       23.5740   19.4920   43.6230 C.ar  357  HIS357      0.1154
    193  CE1       22.8970   17.9430   45.0210 C.ar  357  HIS357      0.1986
    194  NE2       23.0340   19.2470   44.8630 N.ar  357  HIS357     -0.2212
    195  N         29.3960    1.4340   44.3710 N.3   420  HIS420     -0.1226
    196  CA        28.4130    0.3820   44.6200 C.3   420  HIS420      0.1752
    197  C         27.0200    0.7870   44.1370 C.2   420  HIS420      0.2596
    198  O         26.0650    0.0180   44.2650 O.2   420  HIS420     -0.2718
    199  CB        28.3690    0.0480   46.1150 C.3   420  HIS420      0.0759
    200  CG        28.1330    1.2390   46.9910 C.ar  420  HIS420      0.0818
    201  ND1       28.9970    2.3130   47.0320 N.ar  420  HIS420     -0.2268
    202  CD2       27.1230    1.5340   47.8440 C.ar  420  HIS420      0.1154
    203  CE1       28.5280    3.2200   47.8720 C.ar  420  HIS420      0.1986
    204  NE2       27.3930    2.7710   48.3780 N.ar  420  HIS420     -0.2212
    205  N         26.9090    1.9900   43.5780 N.am  421  ASP421     -0.1974
    206  CA        25.6290    2.4830   43.0780 C.3   421  ASP421      0.1709
    207  C         25.6270    2.6540   41.5590 C.2   421  ASP421      0.2293
    208  O         24.7150    3.2610   41.0060 O.2   421  ASP421     -0.2864
    209  CB        25.2770    3.8270   43.7210 C.3   421  ASP421      0.1436
    210  CG        25.1400    3.7420   45.2280 C.2   421  ASP421      0.3671
    211  OD1       24.5260    2.7740   45.7210 O.co2 421  ASP421     -0.2456
    212  OD2       25.6320    4.6560   45.9220 O.co2 421  ASP421     -0.2456
    213  N         24.9090   -2.3700   37.1630 N.3   464  THR464     -0.1203
    214  CA        24.6960   -1.5850   38.3690 C.3   464  THR464      0.1994
    215  C         24.0710   -2.4050   39.4990 C.2   464  THR464      0.2617
    216  O         23.7380   -3.5800   39.3230 O.2   464  THR464     -0.2717
    217  CB        23.8100   -0.3540   38.0780 C.3   464  THR464      0.1784
    218  OG1       23.9430    0.5900   39.1470 O.3   464  THR464     -0.2211
    219  CG2       22.3380   -0.7670   37.9460 C.3   464  THR464      0.0376
    220  N         23.9400   -1.7660   40.6600 N.am  465  ASP465     -0.1973
    221  CA        23.3680   -2.3650   41.8640 C.3   465  ASP465      0.1709
    222  C         22.2140   -3.2990   41.5040 C.2   465  ASP465      0.2293
    223  O         21.2520   -2.8750   40.8670 O.2   465  ASP465     -0.2864
    224  CB        22.8650   -1.2480   42.7830 C.3   465  ASP465      0.1436
    225  CG        22.3390   -1.7650   44.1050 C.2   465  ASP465      0.3671
    226  OD1       21.7350   -0.9670   44.8500 O.co2 465  ASP465     -0.2456
    227  OD2       22.5310   -2.9610   44.4030 O.co2 465  ASP465     -0.2456
    228  N         28.1100   -5.4990   42.9040 N.3   469  ARG469     -0.1245
    229  CA        28.5400   -5.9350   44.2290 C.3   469  ARG469      0.1563
    230  C         28.8230   -7.4360   44.3000 C.2   469  ARG469      0.2260
    231  O         28.5220   -8.0820   45.2980 O.2   469  ARG469     -0.2867
    232  CB        27.4810   -5.5480   45.2700 C.3   469  ARG469      0.0307
    233  CG        27.1610   -4.0620   45.2850 C.3   469  ARG469      0.0489
    234  CD        25.9160   -3.7540   46.0980 C.3   469  ARG469      0.2205
    235  NE        25.5340   -2.3510   45.9630 N.pl3 469  ARG469     -0.0865
    236  CZ        24.5370   -1.7700   46.6240 C.cat 469  ARG469      0.5346
    237  NH1       23.8030   -2.4670   47.4840 N.pl3 469  ARG469      0.1354
    238  NH2       24.2680   -0.4880   46.4180 N.pl3 469  ARG469      0.1354
@<TRIPOS>BOND
     1   213   214    1
     2   219   217    1
     3   217   214    1
     4   217   218    1
     5   214   215    1
     6   216   215    2
     7   215   220   am
     8   220   221    1
     9   223   222    2
    10   174   173    2
    11   208   207    2
    12   183   181   ar
    13   183   184   ar
    14   181   178   ar
    15   222   221    1
    16   207   206    1
    17   189   186    1
    18   189   190    1
    19   186   187    1
    20   186   185    1
    21   221   224    1
    22   184   182   ar
    23   173   185   am
    24   173   172    1
    25   187   188    2
    26   175   172    1
    27   175   176    1
    28   178   176   ar
    29   178   180   ar
    30   224   225    1
    31   228   229    1
    32   190   192   ar
    33   190   191   ar
    34   172   171    1
    35   206   205    1
    36   206   209    1
    37   176   177   ar
    38   182   180   ar
    39   205   197   am
    40   192   194   ar
    41   180   179   ar
    42   209   210    1
    43   191   193   ar
    44   225   227   ar
    45   225   226   ar
    46   197   198    2
    47   197   196    1
    48   229   230    1
    49   229   232    1
    50   230   231    2
    51   195   196    1
    52   177   179   ar
    53   196   199    1
    54   194   193   ar
    55     1     2    1
    56   210   211   ar
    57   210   212   ar
    58   232   233    1
    59   233   234    1
    60     5     2    1
    61     5     6    1
    62     7     6   ar
    63     7     9   ar
    64   235   234    1
    65   235   236    2
    66     2     3    1
    67   199   200    1
    68     6     8   ar
    69     9    10   ar
    70   238   236    1
    71   236   237    1
    72   200   201   ar
    73   200   202   ar
    74   201   203   ar
    75     8    10   ar
    76    91    89   am
    77   151   150    2
    78   170   168   ar
    79     3     4    2
    80    82    79    1
    81   202   204   ar
    82   203   204   ar
    83    89    90    2
    84    89    88    1
    85   167   168    1
    86   167   166    1
    87    79    80    1
    88    79    78    1
    89   168   169   ar
    90    77    75   ar
    91    77    76   ar
    92    80    81    2
    93   150   152   am
    94   150   149    1
    95   164   165    2
    96   164   163    1
    97    26    25   ar
    98    26    24   ar
    99    75    73   ar
   100   161   159   ar
   101    25    23   ar
   102    88    87    1
   103    87    84    1
   104    76    74   ar
   105   163   166    1
   106   163   162    1
   107   149   146    1
   108    83    84    1
   109    98    96    1
   110    24    22   ar
   111    78    69   am
   112   129   127    1
   113    86    85    2
   114    84    85    1
   115    23    22   ar
   116   159   158    1
   117   159   160   ar
   118    73    72   ar
   119    85    92   am
   120    74    72   ar
   121    22    21    1
   122   158   157    1
   123    70    69    2
   124    69    68    1
   125   146   145    1
   126   146   147    1
   127   143   142    1
   128    72    71    1
   129   127   128    1
   130   127   126    2
   131   148   147    2
   132    34    32   ar
   133    34    36   ar
   134    92    93    1
   135    96    93    1
   136    96    97    1
   137   144   142    1
   138   139   142    1
   139   139   138    1
   140   139   140    1
   141   125   126    1
   142   125   124    1
   143    31    32    1
   144    31    28    1
   145   147   153   am
   146    48    47    1
   147    93    94    1
   148    46    47   ar
   149    46    44   ar
   150   137   135   am
   151    32    33   ar
   152   138   132   am
   153    21    18    1
   154    36    35   ar
   155   118   117    1
   156   124   123    1
   157    47    45   ar
   158    68    71    1
   159    68    67    1
   160   140   141    2
   161   153   154    1
   162   157   154    1
   163    44    42   ar
   164    28    27    1
   165    28    29    1
   166   105   104    1
   167   105    99    1
   168   154   155    1
   169    33    35   ar
   170    27    19   am
   171    45    43   ar
   172    19    20    2
   173    19    18    1
   174   135   136    2
   175   135   134    1
   176   132   131    1
   177   132   133    2
   178    94    99   am
   179    94    95    2
   180    42    43   ar
   181    42    41    1
   182    18    17    1
   183   131   134    1
   184   131   130    1
   185   117   116    1
   186   104   103    1
   187    99   100    1
   188   123   120    1
   189    17    13   am
   190    41    38    1
   191    29    30    2
   192    66    64   ar
   193    66    65   ar
   194   155   156    2
   195   120   121    1
   196   120   119    1
   197    15    16    1
   198    15    12    1
   199    64    62   ar
   200   116   115    1
   201    65    63   ar
   202   103   100    1
   203   121   122    2
   204   100   101    1
   205    13    12    1
   206    13    14    2
   207   115   112    1
   208    37    38    1
   209    38    39    1
   210    12    11    1
   211   106   101   am
   212   106   107    1
   213   110   107    1
   214    62    63   ar
   215    62    61    1
   216   114   113    2
   217   101   102    2
   218   111   112    1
   219   111   108   am
   220    55    54   ar
   221    39    40    2
   222    39    49   am
   223   107   108    1
   224   112   113    1
   225    54    56   ar
   226    54    53    1
   227    49    50    1
   228   108   109    2
   229    61    58    1
   230    53    50    1
   231    50    51    1
   232    57    58    1
   233    58    59    1
   234    60    59    2
   235    51    52    2
