@<TRIPOS>MOLECULE
tmp/1vbaB00.pdb
 218 212 0 0 0
SMALL
GASTEIGER

@<TRIPOS>ATOM
      1  N         29.9830   61.0810  119.0590 N.3    87  ILE87      -0.1231
      2  CA        29.1340   59.9820  118.6140 C.3    87  ILE87       0.1692
      3  C         29.7300   58.6060  118.9000 C.2    87  ILE87       0.2593
      4  O         30.8270   58.2400  118.4820 O.2    87  ILE87      -0.2718
      5  CB        28.8400   60.1630  117.1290 C.3    87  ILE87       0.0266
      6  CG1       28.0880   61.4630  116.9590 C.3    87  ILE87       0.0019
      7  CG2       27.9960   59.0430  116.5870 C.3    87  ILE87       0.0020
      8  CD1       28.5060   62.2600  115.7350 C.3    87  ILE87       0.0001
      9  N         28.9860   57.8380  119.6760 N.am   88  THR88      -0.1939
     10  CA        29.3600   56.4650  119.9980 C.3    88  THR88       0.2028
     11  C         28.2050   55.5910  120.4500 C.2    88  THR88       0.2642
     12  O         27.1890   56.1050  120.9180 O.2    88  THR88      -0.2714
     13  CB        30.4290   56.4410  121.1200 C.3    88  THR88       0.1808
     14  OG1       30.6960   55.0570  121.3690 O.3    88  THR88      -0.2208
     15  CG2       30.0000   57.1160  122.4000 C.3    88  THR88       0.0379
     16  N         28.2960   54.2610  120.3600 N.am   89  TYR89      -0.1959
     17  CA        27.2820   53.4020  120.9840 C.3    89  TYR89       0.1771
     18  C         27.7180   52.9360  122.3860 C.2    89  TYR89       0.2619
     19  O         27.1110   52.0510  122.9860 O.2    89  TYR89      -0.2715
     20  CB        26.9950   52.2000  120.0840 C.3    89  TYR89       0.0574
     21  CG        28.1970   51.3190  119.7270 C.ar   89  TYR89      -0.0198
     22  CD1       28.8030   50.4980  120.6980 C.ar   89  TYR89      -0.0009
     23  CD2       28.7050   51.3590  118.4380 C.ar   89  TYR89      -0.0009
     24  CE1       29.9080   49.7340  120.3790 C.ar   89  TYR89       0.0417
     25  CE2       29.8190   50.5770  118.1130 C.ar   89  TYR89       0.0417
     26  CZ        30.4220   49.7800  119.0910 C.ar   89  TYR89       0.1957
     27  OH        31.5080   49.0070  118.7800 O.3    89  TYR89      -0.2866
     28  N         28.7960   53.4830  122.9420 N.am   90  LYS90      -0.1977
     29  CA        29.3820   53.0570  124.2170 C.3    90  LYS90       0.1596
     30  C         29.0820   53.8070  125.5250 C.2    90  LYS90       0.2287
     31  O         29.6620   53.5150  126.5650 O.2    90  LYS90      -0.2864
     32  CB        30.8740   52.9890  124.0460 C.3    90  LYS90       0.0298
     33  CG        31.3570   51.8440  123.1800 C.3    90  LYS90       0.0038
     34  CD        32.8540   51.9150  123.0020 C.3    90  LYS90       0.0206
     35  CE        33.3610   50.6060  122.4900 C.3    90  LYS90       0.1093
     36  NZ        34.7920   50.7160  122.2490 N.3    90  LYS90      -0.1314
     37  N         27.2220   48.7100  108.2970 N.3   107  PHE107     -0.1241
     38  CA        25.8340   49.1630  108.2400 C.3   107  PHE107      0.1605
     39  C         25.6130   50.6500  108.0100 C.2   107  PHE107      0.2264
     40  O         26.5070   51.4740  108.2140 O.2   107  PHE107     -0.2867
     41  CB        25.0730   48.8160  109.5290 C.3   107  PHE107      0.0534
     42  CG        25.7570   49.2340  110.8330 C.ar  107  PHE107     -0.0203
     43  CD1       25.7120   50.5610  111.2750 C.ar  107  PHE107     -0.0042
     44  CD2       26.3910   48.2630  111.6130 C.ar  107  PHE107     -0.0042
     45  CE1       26.3220   50.9160  112.4810 C.ar  107  PHE107     -0.0003
     46  CE2       27.0030   48.6330  112.8160 C.ar  107  PHE107     -0.0003
     47  CZ        26.9790   49.9600  113.2490 C.ar  107  PHE107     -0.0000
     48  N         23.2490   53.8700  109.3960 N.3   109  MET109     -0.1245
     49  CA        22.7470   54.1640  110.7290 C.3   109  MET109      0.1570
     50  C         21.6040   55.1440  110.6830 C.2   109  MET109      0.2261
     51  O         21.6260   56.1630  109.9780 O.2   109  MET109     -0.2867
     52  CB        23.8950   54.7390  111.5620 C.3   109  MET109      0.0387
     53  CG        23.6860   54.9110  113.0640 C.3   109  MET109      0.0595
     54  SD        23.4280   53.3840  113.9980 S.3   109  MET109     -0.1393
     55  CE        25.0750   53.2270  114.6250 C.3   109  MET109      0.0692
     56  N         19.3040   57.7320  112.8870 N.3   111  PHE111     -0.1241
     57  CA        19.2390   58.5020  114.1080 C.3   111  PHE111      0.1605
     58  C         17.9140   59.1850  114.3440 C.2   111  PHE111      0.2264
     59  O         17.4590   60.0040  113.5320 O.2   111  PHE111     -0.2867
     60  CB        20.2720   59.5890  114.1400 C.3   111  PHE111      0.0534
     61  CG        21.6840   59.1100  114.3930 C.ar  111  PHE111     -0.0203
     62  CD1       22.4900   58.6690  113.3330 C.ar  111  PHE111     -0.0042
     63  CD2       22.1760   59.1270  115.6880 C.ar  111  PHE111     -0.0042
     64  CE1       23.7870   58.2580  113.5950 C.ar  111  PHE111     -0.0003
     65  CE2       23.4750   58.7080  115.9420 C.ar  111  PHE111     -0.0003
     66  CZ        24.2850   58.2730  114.8930 C.ar  111  PHE111     -0.0000
     67  N         15.6830   61.5260  117.0590 N.3   113  PHE113     -0.1241
     68  CA        15.8590   62.4440  118.1750 C.3   113  PHE113      0.1605
     69  C         14.6170   62.8160  118.9700 C.2   113  PHE113      0.2264
     70  O         13.7130   63.4830  118.4520 O.2   113  PHE113     -0.2867
     71  CB        16.4950   63.7150  117.6470 C.3   113  PHE113      0.0534
     72  CG        17.8150   63.5140  116.9290 C.ar  113  PHE113     -0.0203
     73  CD1       17.8360   63.1490  115.5770 C.ar  113  PHE113     -0.0042
     74  CD2       19.0060   63.7010  117.6320 C.ar  113  PHE113     -0.0042
     75  CE1       19.0610   63.0040  114.9190 C.ar  113  PHE113     -0.0003
     76  CE2       20.2240   63.5480  116.9750 C.ar  113  PHE113     -0.0003
     77  CZ        20.2570   63.2160  115.6200 C.ar  113  PHE113     -0.0000
     78  N         20.6790   70.9430  116.0000 N.3   134  ILE134     -0.1245
     79  CA        21.5720   69.8240  116.2020 C.3   134  ILE134      0.1561
     80  C         22.5660   69.8140  115.0340 C.2   134  ILE134      0.2260
     81  O         22.2300   69.5110  113.8980 O.2   134  ILE134     -0.2867
     82  CB        20.7340   68.5290  116.2570 C.3   134  ILE134      0.0252
     83  CG1       19.5700   68.6600  117.2330 C.3   134  ILE134      0.0019
     84  CG2       21.6560   67.3970  116.6970 C.3   134  ILE134      0.0019
     85  CD1       18.6630   67.4180  117.3810 C.3   134  ILE134      0.0001
     86  N         26.1380   68.5380  113.1990 N.3   136  TYR136     -0.1241
     87  CA        27.1990   67.5660  113.1850 C.3   136  TYR136      0.1605
     88  C         28.5450   68.2070  112.8310 C.2   136  TYR136      0.2264
     89  O         28.7160   68.8650  111.8140 O.2   136  TYR136     -0.2867
     90  CB        26.8820   66.4860  112.1850 C.3   136  TYR136      0.0534
     91  CG        27.9890   65.4400  111.9550 C.ar  136  TYR136     -0.0201
     92  CD1       28.5790   64.7630  113.0260 C.ar  136  TYR136     -0.0009
     93  CD2       28.3780   65.1570  110.6460 C.ar  136  TYR136     -0.0009
     94  CE1       29.5480   63.7980  112.7860 C.ar  136  TYR136      0.0417
     95  CE2       29.3440   64.1930  110.4000 C.ar  136  TYR136      0.0417
     96  CZ        29.9260   63.5140  111.4760 C.ar  136  TYR136      0.1957
     97  OH        30.8410   62.5230  111.2210 O.3   136  TYR136     -0.2866
     98  N         26.3310   69.2410  108.2420 N.2   158  PRO158     -0.2571
     99  CA        24.9020   69.0000  108.2750 C.3   158  PRO158      0.2026
    100  C         24.3160   69.4530  109.6070 C.2   158  PRO158      0.2684
    101  O         24.8790   69.2320  110.6790 O.2   158  PRO158     -0.2709
    102  CB        24.7450   67.5330  108.0720 C.2   158  PRO158      0.0085
    103  CG        26.1090   66.9220  108.0060 C.2   158  PRO158      0.0180
    104  CD        27.1390   68.0340  108.1310 C.2   158  PRO158      0.0938
    105  N         23.2130   70.1750  109.5720 N.am  159  SER159     -0.1931
    106  CA        22.4390   70.5210  110.7640 C.3   159  SER159      0.2055
    107  C         20.9560   70.1500  110.6990 C.2   159  SER159      0.2642
    108  O         20.3340   70.1800  109.6260 O.2   159  SER159     -0.2714
    109  CB        22.4100   72.0080  111.0570 C.3   159  SER159      0.2130
    110  OG        23.6140   72.5260  111.5720 O.3   159  SER159     -0.2179
    111  N         20.3620   69.7560  111.8220 N.am  160  ILE160     -0.1977
    112  CA        18.9230   69.6120  111.9100 C.3   160  ILE160      0.1596
    113  C         18.3200   70.7250  112.7560 C.2   160  ILE160      0.2287
    114  O         18.7570   71.0040  113.8660 O.2   160  ILE160     -0.2864
    115  CB        18.4790   68.2770  112.5450 C.3   160  ILE160      0.0276
    116  CG1       18.8600   67.1100  111.6860 C.3   160  ILE160      0.0022
    117  CG2       16.9510   68.2450  112.6750 C.3   160  ILE160      0.0022
    118  CD1       18.7100   65.8090  112.4870 C.3   160  ILE160      0.0001
    119  N         17.1030   61.3330  110.8650 N.3   171  ILE171     -0.1245
    120  CA        17.9790   61.3330  109.7050 C.3   171  ILE171      0.1561
    121  C         18.6740   59.9770  109.5240 C.2   171  ILE171      0.2260
    122  O         18.7520   59.1370  110.4250 O.2   171  ILE171     -0.2867
    123  CB        19.0610   62.4340  109.7980 C.3   171  ILE171      0.0252
    124  CG1       19.8340   62.4110  111.1000 C.3   171  ILE171      0.0019
    125  CG2       18.3630   63.7480  109.5910 C.3   171  ILE171      0.0019
    126  CD1       21.1900   61.6600  110.9910 C.3   171  ILE171      0.0001
    127  N         22.3110   58.0380  107.9800 N.3   173  VAL173     -0.1231
    128  CA        23.7470   58.1600  107.7260 C.3   173  VAL173      0.1681
    129  C         24.2910   56.9220  106.9950 C.2   173  VAL173      0.2471
    130  O         23.9420   55.7790  107.3360 O.2   173  VAL173     -0.2730
    131  CB        24.4560   58.3700  109.0930 C.3   173  VAL173      0.0265
    132  CG1       25.9560   58.4690  108.9390 C.3   173  VAL173      0.0020
    133  CG2       24.0050   59.6770  109.6720 C.3   173  VAL173      0.0020
    134  N         25.0980   57.0800  105.9390 N.am  174  PRO174     -0.2506
    135  CA        25.7170   55.9820  105.2090 C.3   174  PRO174      0.1487
    136  C         26.7570   55.1990  106.0040 C.2   174  PRO174      0.2276
    137  O         27.0810   55.5670  107.1320 O.2   174  PRO174     -0.2865
    138  CB        26.3600   56.5830  104.0120 C.3   174  PRO174      0.0556
    139  CG        26.1720   58.0690  104.0760 C.2   174  PRO174     -0.0078
    140  CD        25.3520   58.3700  105.3170 C.2   174  PRO174      0.0634
    141  N         30.1440   55.0100  107.0910 N.3   176  VAL176     -0.1245
    142  CA        31.1870   56.0350  106.9730 C.3   176  VAL176      0.1561
    143  C         32.6030   55.7130  107.4370 C.2   176  VAL176      0.2260
    144  O         33.4670   56.6070  107.5740 O.2   176  VAL176     -0.2867
    145  CB        30.7090   57.3460  107.6800 C.3   176  VAL176      0.0252
    146  CG1       29.4470   57.8250  106.9950 C.3   176  VAL176      0.0019
    147  CG2       30.4540   57.1160  109.1670 C.3   176  VAL176      0.0019
    148  N         33.4900   48.3150  110.3030 N.3   182  TYR182     -0.1227
    149  CA        33.6980   48.9150  111.6110 C.3   182  TYR182      0.1736
    150  C         34.3080   47.8740  112.5490 C.2   182  TYR182      0.2596
    151  O         33.8290   46.7380  112.6230 O.2   182  TYR182     -0.2718
    152  CB        32.4030   49.3810  112.2370 C.3   182  TYR182      0.0548
    153  CG        31.6580   50.5040  111.5570 C.ar  182  TYR182     -0.0200
    154  CD1       32.2420   51.7440  111.3620 C.ar  182  TYR182     -0.0009
    155  CD2       30.3190   50.3020  111.1800 C.ar  182  TYR182     -0.0009
    156  CE1       31.5190   52.7800  110.7860 C.ar  182  TYR182      0.0417
    157  CE2       29.5950   51.3380  110.6050 C.ar  182  TYR182      0.0417
    158  CZ        30.2020   52.5680  110.3980 C.ar  182  TYR182      0.1957
    159  OH        29.4940   53.6110  109.8090 O.3   182  TYR182     -0.2866
    160  N         35.3650   48.2070  113.2660 N.am  183  SER183     -0.1938
    161  CA        35.9470   47.2870  114.2420 C.3   183  SER183      0.2055
    162  C         35.3390   47.4790  115.5930 C.2   183  SER183      0.2643
    163  O         35.5120   48.5170  116.2350 O.2   183  SER183     -0.2714
    164  CB        37.4430   47.4650  114.4600 C.3   183  SER183      0.2130
    165  OG        38.2040   46.9650  113.3660 O.3   183  SER183     -0.2179
    166  N         34.5770   46.4950  116.0570 N.am  184  HIS184     -0.1973
    167  CA        34.0270   46.5610  117.4130 C.3   184  HIS184      0.1656
    168  C         35.1220   46.3100  118.4650 C.2   184  HIS184      0.2291
    169  O         34.9630   46.5930  119.6440 O.2   184  HIS184     -0.2864
    170  CB        32.9340   45.5230  117.6130 C.3   184  HIS184      0.0771
    171  CG        31.7210   45.7100  116.7250 C.ar  184  HIS184      0.0820
    172  ND1       30.6640   44.9160  116.6360 N.ar  184  HIS184     -0.2267
    173  CD2       31.5200   46.7640  115.8610 C.ar  184  HIS184      0.1154
    174  CE1       29.8330   45.4300  115.7700 C.ar  184  HIS184      0.1986
    175  NE2       30.3590   46.5330  115.3190 N.ar  184  HIS184     -0.2212
    176  N         41.7390   53.6750  118.2560 N.3   210  MET210     -0.1245
    177  CA        42.2100   53.9600  116.8860 C.3   210  MET210      0.1570
    178  C         42.4380   55.4560  116.6400 C.2   210  MET210      0.2261
    179  O         43.4770   55.9990  116.9980 O.2   210  MET210     -0.2867
    180  CB        41.1730   53.3980  115.8790 C.3   210  MET210      0.0387
    181  CG        40.9760   51.8880  116.0010 C.3   210  MET210      0.0595
    182  SD        39.8610   51.1670  114.7770 S.3   210  MET210     -0.1393
    183  CE        38.5440   50.7930  115.8870 C.3   210  MET210      0.0692
    184  N         37.3710   59.5410  116.4980 N.3   214  ASP214     -0.1225
    185  CA        36.5240   58.5230  115.8940 C.3   214  ASP214      0.1805
    186  C         35.6120   59.0200  114.7520 C.2   214  ASP214      0.2597
    187  O         36.0140   59.0090  113.5950 O.2   214  ASP214     -0.2718
    188  CB        35.6750   57.8600  116.9960 C.3   214  ASP214      0.1424
    189  CG        36.2760   57.8160  118.4050 C.2   214  ASP214      0.3668
    190  OD1       37.4290   57.4170  118.5800 O.co2 214  ASP214     -0.2456
    191  OD2       35.5880   58.1910  119.3530 O.co2 214  ASP214     -0.2456
    192  N         34.4170   59.5280  115.0360 N.am  215  PHE215     -0.1976
    193  CA        33.4560   59.9960  114.0530 C.3   215  PHE215      0.1639
    194  C         32.9640   61.4150  114.2940 C.2   215  PHE215      0.2290
    195  O         31.9620   61.8630  113.7290 O.2   215  PHE215     -0.2864
    196  CB        32.2290   59.0990  114.0280 C.3   215  PHE215      0.0560
    197  CG        32.5470   57.6230  114.0030 C.ar  215  PHE215     -0.0200
    198  CD1       32.9150   56.9990  112.8260 C.ar  215  PHE215     -0.0042
    199  CD2       32.5340   56.9150  115.2150 C.ar  215  PHE215     -0.0042
    200  CE1       33.2770   55.6520  112.8540 C.ar  215  PHE215     -0.0003
    201  CE2       32.9220   55.5760  115.2340 C.ar  215  PHE215     -0.0003
    202  CZ        33.2910   54.9420  114.0500 C.ar  215  PHE215     -0.0000
    203  N         28.2080   65.7500  117.9310 N.3   218  LEU218     -0.1245
    204  CA        26.9560   66.4590  117.7180 C.3   218  LEU218      0.1561
    205  C         26.8950   67.6520  118.6550 C.2   218  LEU218      0.2260
    206  O         27.0240   67.5270  119.8760 O.2   218  LEU218     -0.2867
    207  CB        25.7650   65.5780  117.9860 C.3   218  LEU218      0.0270
    208  CG        25.4600   64.4060  117.0790 C.3   218  LEU218      0.0019
    209  CD1       24.1310   63.8130  117.5040 C.3   218  LEU218      0.0001
    210  CD2       25.3180   64.8400  115.6240 C.3   218  LEU218      0.0001
    211  N         19.5250   55.2280  118.3040 N.3   239  MET239     -0.1245
    212  CA        20.3590   54.7030  117.2310 C.3   239  MET239      0.1570
    213  C         19.8100   53.4010  116.6660 C.2   239  MET239      0.2261
    214  O         19.3850   52.5300  117.4320 O.2   239  MET239     -0.2867
    215  CB        21.7320   54.5040  117.8310 C.3   239  MET239      0.0387
    216  CG        22.9030   54.7100  116.9470 C.3   239  MET239      0.0595
    217  SD        24.4880   54.5100  117.7960 S.3   239  MET239     -0.1393
    218  CE        25.0340   56.1850  117.7550 C.3   239  MET239      0.0692
@<TRIPOS>BOND
     1   138   139    1
     2   138   135    1
     3   139   140    2
     4   135   134    1
     5   135   136    1
     6   140   134    1
     7   134   129   am
     8   136   137    2
     9   142   141    1
    10   142   143    1
    11   142   145    1
    12   146   145    1
    13   129   130    2
    14   129   128    1
    15   143   144    2
    16   145   147    1
    17   128   127    1
    18   128   131    1
    19   103   102    2
    20   103   104    1
    21    39    40    2
    22    39    38    1
    23   102    99    1
    24   104    98    2
    25    38    37    1
    26    38    41    1
    27    98    99    1
    28    99   100    1
    29   132   131    1
    30   131   133    1
    31    48    49    1
    32   121   120    1
    33   121   122    2
    34    41    42    1
    35   105   100   am
    36   105   106    1
    37   125   123    1
    38   100   101    2
    39   108   107    2
    40   120   123    1
    41   120   119    1
    42   123   124    1
    43   159   158    1
    44    51    50    2
    45   148   149    1
    46   158   157   ar
    47   158   156   ar
    48    95    93   ar
    49    95    96   ar
    50   157   155   ar
    51    93    91   ar
    52    50    49    1
    53   107   106    1
    54   107   111   am
    55    49    52    1
    56   106   109    1
    57   156   154   ar
    58    42    43   ar
    59    42    44   ar
    60   126   124    1
    61   109   110    1
    62   155   153   ar
    63    97    96    1
    64    43    45   ar
    65   154   153   ar
    66    96    94   ar
    67   153   152    1
    68    52    53    1
    69   149   152    1
    70   149   150    1
    71    44    46   ar
    72   116   118    1
    73   116   115    1
    74    89    88    2
    75   111   112    1
    76   112   115    1
    77   112   113    1
    78    91    90    1
    79    91    92   ar
    80    90    87    1
    81    45    47   ar
    82   115   117    1
    83   150   151    2
    84   150   160   am
    85   113   114    2
    86    94    92   ar
    87    46    47   ar
    88   198   200   ar
    89   198   197   ar
    90    88    87    1
    91   200   202   ar
    92    56    57    1
    93    53    54    1
    94    87    86    1
    95   160   161    1
    96    62    64   ar
    97    62    61   ar
    98   165   164    1
    99    59    58    2
   100    64    66   ar
   101   187   186    2
   102   195   194    2
   103    81    80    2
   104    54    55    1
   105   197   196    1
   106   197   199   ar
   107   196   193    1
   108   202   201   ar
   109   193   194    1
   110   193   192    1
   111    57    60    1
   112    57    58    1
   113    60    61    1
   114   161   164    1
   115   161   162    1
   116    61    63   ar
   117   186   192   am
   118   186   185    1
   119   182   183    1
   120   182   181    1
   121    66    65   ar
   122    75    73   ar
   123    75    77   ar
   124    80    79    1
   125   199   201   ar
   126   175   174   ar
   127   175   173   ar
   128    73    72   ar
   129   162   166   am
   130   162   163    2
   131    77    76   ar
   132   210   208    1
   133    63    65   ar
   134     8     6    1
   135   174   172   ar
   136   173   171   ar
   137   180   181    1
   138   180   177    1
   139   185   184    1
   140   185   188    1
   141    78    79    1
   142   166   167    1
   143    79    82    1
   144    82    84    1
   145    82    83    1
   146     7     5    1
   147   172   171   ar
   148   178   177    1
   149   178   179    2
   150   213   212    1
   151   213   214    2
   152   171   170    1
   153   177   176    1
   154    72    74   ar
   155    72    71    1
   156   216   217    1
   157   216   215    1
   158     6     5    1
   159    76    74   ar
   160   188   189    1
   161    67    68    1
   162   208   209    1
   163   208   207    1
   164     5     2    1
   165   212   215    1
   166   212   211    1
   167    83    85    1
   168   167   170    1
   169   167   168    1
   170    71    68    1
   171   204   203    1
   172   204   207    1
   173   204   205    1
   174   218   217    1
   175    25    23   ar
   176    25    26   ar
   177    68    69    1
   178   189   190   ar
   179   189   191   ar
   180    23    21   ar
   181    70    69    2
   182   168   169    2
   183     4     3    2
   184     2     3    1
   185     2     1    1
   186   205   206    2
   187    27    26    1
   188     3     9   am
   189    26    24   ar
   190     9    10    1
   191    21    20    1
   192    21    22   ar
   193    10    11    1
   194    10    13    1
   195    20    17    1
   196    16    11   am
   197    16    17    1
   198    24    22   ar
   199    11    12    2
   200    17    18    1
   201    13    14    1
   202    13    15    1
   203    36    35    1
   204    18    28   am
   205    18    19    2
   206    35    34    1
   207    28    29    1
   208    34    33    1
   209    33    32    1
   210    32    29    1
   211    29    30    1
   212    30    31    2
