@<TRIPOS>MOLECULE
tmp/1vbbB00.pdb
 211 204 0 0 0
SMALL
GASTEIGER

@<TRIPOS>ATOM
      1  N         29.9350   61.1280  119.1800 N.3    87  ILE87      -0.1231
      2  CA        29.0670   60.0570  118.7200 C.3    87  ILE87       0.1692
      3  C         29.6390   58.6770  119.0080 C.2    87  ILE87       0.2593
      4  O         30.7500   58.3120  118.6240 O.2    87  ILE87      -0.2718
      5  CB        28.7940   60.2980  117.2330 C.3    87  ILE87       0.0266
      6  CG1       28.1310   61.6590  117.0920 C.3    87  ILE87       0.0019
      7  CG2       27.8820   59.2340  116.6560 C.3    87  ILE87       0.0020
      8  CD1       28.2940   62.3130  115.7290 C.3    87  ILE87       0.0001
      9  N         28.8660   57.9030  119.7530 N.am   88  THR88      -0.1939
     10  CA        29.2570   56.5570  120.1190 C.3    88  THR88       0.2028
     11  C         28.1280   55.6450  120.5590 C.2    88  THR88       0.2642
     12  O         27.0720   56.1160  120.9640 O.2    88  THR88      -0.2714
     13  CB        30.3010   56.5970  121.2610 C.3    88  THR88       0.1808
     14  OG1       30.7960   55.2530  121.3610 O.3    88  THR88      -0.2208
     15  CG2       29.7550   57.0500  122.5950 C.3    88  THR88       0.0379
     16  N         28.2880   54.3230  120.5010 N.am   89  TYR89      -0.1959
     17  CA        27.2920   53.4370  121.1100 C.3    89  TYR89       0.1771
     18  C         27.7470   52.9840  122.5060 C.2    89  TYR89       0.2619
     19  O         27.1130   52.1480  123.1570 O.2    89  TYR89      -0.2715
     20  CB        27.0380   52.2130  120.2420 C.3    89  TYR89       0.0574
     21  CG        28.2580   51.3710  119.8680 C.ar   89  TYR89      -0.0198
     22  CD1       28.8700   50.5300  120.8060 C.ar   89  TYR89      -0.0009
     23  CD2       28.7730   51.4480  118.5720 C.ar   89  TYR89      -0.0009
     24  CE1       29.9820   49.7780  120.4660 C.ar   89  TYR89       0.0417
     25  CE2       29.8810   50.6870  118.2230 C.ar   89  TYR89       0.0417
     26  CZ        30.4770   49.8550  119.1650 C.ar   89  TYR89       0.1957
     27  OH        31.5680   49.0930  118.8070 O.3    89  TYR89      -0.2866
     28  N         28.8700   53.5040  123.0030 N.am   90  LYS90      -0.1977
     29  CA        29.4330   53.1050  124.2810 C.3    90  LYS90       0.1596
     30  C         29.0840   53.8650  125.5650 C.2    90  LYS90       0.2287
     31  O         29.6380   53.5960  126.6280 O.2    90  LYS90      -0.2864
     32  CB        30.9290   53.0610  124.1250 C.3    90  LYS90       0.0298
     33  CG        31.3960   51.8390  123.3590 C.3    90  LYS90       0.0038
     34  CD        32.8970   51.8010  123.2250 C.3    90  LYS90       0.0206
     35  CE        33.3250   50.5870  122.4290 C.3    90  LYS90       0.1093
     36  NZ        34.7390   50.6800  122.0760 N.3    90  LYS90      -0.1314
     37  N         27.2230   48.7490  108.2850 N.3   107  PHE107     -0.1241
     38  CA        25.8210   49.1590  108.2050 C.3   107  PHE107      0.1605
     39  C         25.5690   50.6460  108.0010 C.2   107  PHE107      0.2264
     40  O         26.4570   51.4780  108.1910 O.2   107  PHE107     -0.2867
     41  CB        25.0240   48.7650  109.4730 C.3   107  PHE107      0.0534
     42  CG        25.6960   49.1220  110.7950 C.ar  107  PHE107     -0.0203
     43  CD1       25.6730   50.4180  111.2970 C.ar  107  PHE107     -0.0042
     44  CD2       26.3630   48.1180  111.5020 C.ar  107  PHE107     -0.0042
     45  CE1       26.3150   50.7090  112.4960 C.ar  107  PHE107     -0.0003
     46  CE2       26.9980   48.4230  112.6920 C.ar  107  PHE107     -0.0003
     47  CZ        26.9900   49.7170  113.1930 C.ar  107  PHE107     -0.0000
     48  N         23.2260   53.9420  109.3550 N.3   109  MET109     -0.1245
     49  CA        22.7330   54.2400  110.6930 C.3   109  MET109      0.1570
     50  C         21.5940   55.2390  110.7120 C.2   109  MET109      0.2261
     51  O         21.6500   56.3200  110.1250 O.2   109  MET109     -0.2867
     52  CB        23.9380   54.7290  111.4880 C.3   109  MET109      0.0387
     53  CG        23.7730   54.9390  112.9630 C.3   109  MET109      0.0595
     54  SD        23.0900   53.4950  113.8280 S.3   109  MET109     -0.1393
     55  CE        24.5750   52.8310  114.5530 C.3   109  MET109      0.0692
     56  N         19.3210   57.7960  112.9000 N.3   111  PHE111     -0.1241
     57  CA        19.2050   58.5360  114.1480 C.3   111  PHE111      0.1605
     58  C         17.8600   59.2170  114.3700 C.2   111  PHE111      0.2264
     59  O         17.3830   60.0000  113.5390 O.2   111  PHE111     -0.2867
     60  CB        20.2290   59.6380  114.2560 C.3   111  PHE111      0.0534
     61  CG        21.6200   59.1480  114.5550 C.ar  111  PHE111     -0.0203
     62  CD1       22.4380   58.6790  113.5200 C.ar  111  PHE111     -0.0042
     63  CD2       22.0740   59.1520  115.8670 C.ar  111  PHE111     -0.0042
     64  CE1       23.7040   58.2180  113.8260 C.ar  111  PHE111     -0.0003
     65  CE2       23.3520   58.6810  116.1620 C.ar  111  PHE111     -0.0003
     66  CZ        24.1660   58.2140  115.1440 C.ar  111  PHE111     -0.0000
     67  N         15.6450   61.5820  117.1630 N.3   113  PHE113     -0.1241
     68  CA        15.8130   62.4870  118.2970 C.3   113  PHE113      0.1605
     69  C         14.5480   62.8820  119.0440 C.2   113  PHE113      0.2264
     70  O         13.6960   63.5810  118.5010 O.2   113  PHE113     -0.2867
     71  CB        16.4980   63.7560  117.8160 C.3   113  PHE113      0.0534
     72  CG        17.7650   63.5560  117.0070 C.ar  113  PHE113     -0.0203
     73  CD1       17.6920   63.2710  115.6430 C.ar  113  PHE113     -0.0042
     74  CD2       19.0000   63.6510  117.6470 C.ar  113  PHE113     -0.0042
     75  CE1       18.8660   63.0980  114.9140 C.ar  113  PHE113     -0.0003
     76  CE2       20.1690   63.4790  116.9160 C.ar  113  PHE113     -0.0003
     77  CZ        20.1040   63.2160  115.5510 C.ar  113  PHE113     -0.0000
     78  N         20.6820   70.9490  116.0900 N.3   134  ILE134     -0.1245
     79  CA        21.5770   69.8270  116.2490 C.3   134  ILE134      0.1561
     80  C         22.5480   69.8670  115.0670 C.2   134  ILE134      0.2260
     81  O         22.1810   69.6660  113.9170 O.2   134  ILE134     -0.2867
     82  CB        20.7690   68.5190  116.2570 C.3   134  ILE134      0.0252
     83  CG1       19.7350   68.5310  117.3710 C.3   134  ILE134      0.0019
     84  CG2       21.7290   67.3560  116.4410 C.3   134  ILE134      0.0019
     85  CD1       18.6400   67.4830  117.1860 C.3   134  ILE134      0.0001
     86  N         26.1510   68.5090  113.2650 N.3   136  TYR136     -0.1241
     87  CA        27.2310   67.5380  113.2560 C.3   136  TYR136      0.1605
     88  C         28.5630   68.2010  112.9170 C.2   136  TYR136      0.2264
     89  O         28.7270   68.8570  111.8960 O.2   136  TYR136     -0.2867
     90  CB        26.9560   66.4550  112.2620 C.3   136  TYR136      0.0534
     91  CG        28.0670   65.4380  112.0210 C.ar  136  TYR136     -0.0201
     92  CD1       28.7040   64.8110  113.0880 C.ar  136  TYR136     -0.0009
     93  CD2       28.4460   65.1390  110.7090 C.ar  136  TYR136     -0.0009
     94  CE1       29.7060   63.8740  112.8530 C.ar  136  TYR136      0.0417
     95  CE2       29.4380   64.2030  110.4630 C.ar  136  TYR136      0.0417
     96  CZ        30.0670   63.5760  111.5470 C.ar  136  TYR136      0.1957
     97  OH        31.0300   62.6270  111.3210 O.3   136  TYR136     -0.2866
     98  N         26.3560   69.2930  108.2860 N.2   158  PRO158     -0.2571
     99  CA        24.9220   69.0540  108.2780 C.3   158  PRO158      0.2026
    100  C         24.3080   69.5050  109.6050 C.2   158  PRO158      0.2684
    101  O         24.8180   69.2090  110.6860 O.2   158  PRO158     -0.2709
    102  CB        24.7380   67.5940  108.0710 C.2   158  PRO158      0.0085
    103  CG        26.0900   66.9440  108.0700 C.2   158  PRO158      0.0180
    104  CD        27.1250   68.0560  108.2210 C.2   158  PRO158      0.0938
    105  N         23.2320   70.2710  109.5740 N.am  159  SER159     -0.1931
    106  CA        22.4570   70.5860  110.7730 C.3   159  SER159      0.2055
    107  C         20.9640   70.2380  110.7240 C.2   159  SER159      0.2642
    108  O         20.3240   70.3010  109.6710 O.2   159  SER159     -0.2714
    109  CB        22.5050   72.0710  111.1090 C.3   159  SER159      0.2130
    110  OG        23.6870   72.5570  111.7070 O.3   159  SER159     -0.2179
    111  N         20.3810   69.7930  111.8290 N.am  160  ILE160     -0.1977
    112  CA        18.9320   69.6640  111.9680 C.3   160  ILE160      0.1596
    113  C         18.3330   70.7780  112.8330 C.2   160  ILE160      0.2287
    114  O         18.7530   71.0630  113.9520 O.2   160  ILE160     -0.2864
    115  CB        18.5290   68.3020  112.6080 C.3   160  ILE160      0.0276
    116  CG1       18.7500   67.1790  111.6360 C.3   160  ILE160      0.0022
    117  CG2       17.0470   68.2680  112.9500 C.3   160  ILE160      0.0022
    118  CD1       18.7040   65.8190  112.3570 C.3   160  ILE160      0.0001
    119  N         17.0450   61.2930  110.8570 N.3   171  ILE171     -0.1245
    120  CA        17.9160   61.2600  109.6860 C.3   171  ILE171      0.1561
    121  C         18.6450   59.9330  109.5110 C.2   171  ILE171      0.2260
    122  O         18.7440   59.1170  110.4250 O.2   171  ILE171     -0.2867
    123  CB        19.0020   62.4120  109.7200 C.3   171  ILE171      0.0252
    124  CG1       19.8180   62.4470  110.9990 C.3   171  ILE171      0.0019
    125  CG2       18.2760   63.7230  109.5170 C.3   171  ILE171      0.0019
    126  CD1       21.0310   61.5040  111.0410 C.3   171  ILE171      0.0001
    127  N         22.3780   58.0570  108.1010 N.3   173  VAL173     -0.1245
    128  CA        23.8000   58.2560  107.8710 C.3   173  VAL173      0.1561
    129  C         24.3280   57.0710  107.0710 C.2   173  VAL173      0.2260
    130  O         23.9790   55.9230  107.3600 O.2   173  VAL173     -0.2867
    131  CB        24.5160   58.3760  109.2220 C.3   173  VAL173      0.0252
    132  CG1       25.9980   58.5830  109.0240 C.3   173  VAL173      0.0019
    133  CG2       24.0000   59.5830  109.9700 C.3   173  VAL173      0.0019
    134  N         30.1910   55.0690  107.0940 N.3   176  VAL176     -0.1245
    135  CA        31.2460   56.0710  106.9980 C.3   176  VAL176      0.1561
    136  C         32.6430   55.7370  107.5000 C.2   176  VAL176      0.2260
    137  O         33.5000   56.5960  107.7510 O.2   176  VAL176     -0.2867
    138  CB        30.7480   57.3740  107.6650 C.3   176  VAL176      0.0252
    139  CG1       29.6170   57.9460  106.8260 C.3   176  VAL176      0.0019
    140  CG2       30.2750   57.1150  109.0910 C.3   176  VAL176      0.0019
    141  N         33.5190   48.3150  110.2310 N.3   182  TYR182     -0.1227
    142  CA        33.7230   48.8540  111.5730 C.3   182  TYR182      0.1736
    143  C         34.3330   47.8200  112.5050 C.2   182  TYR182      0.2596
    144  O         33.8450   46.6940  112.6030 O.2   182  TYR182     -0.2718
    145  CB        32.4280   49.3020  112.2330 C.3   182  TYR182      0.0548
    146  CG        31.6750   50.4770  111.6440 C.ar  182  TYR182     -0.0200
    147  CD1       32.3250   51.6880  111.4230 C.ar  182  TYR182     -0.0009
    148  CD2       30.3140   50.3590  111.3440 C.ar  182  TYR182     -0.0009
    149  CE1       31.6400   52.7720  110.9030 C.ar  182  TYR182      0.0417
    150  CE2       29.6230   51.4460  110.8170 C.ar  182  TYR182      0.0417
    151  CZ        30.2940   52.6480  110.5940 C.ar  182  TYR182      0.1957
    152  OH        29.6370   53.7430  110.0660 O.3   182  TYR182     -0.2866
    153  N         35.3920   48.1500  113.2220 N.am  183  SER183     -0.1938
    154  CA        36.0000   47.2650  114.1960 C.3   183  SER183      0.2055
    155  C         35.3920   47.4350  115.5690 C.2   183  SER183      0.2643
    156  O         35.6150   48.4540  116.2160 O.2   183  SER183     -0.2714
    157  CB        37.4690   47.5150  114.3570 C.3   183  SER183      0.2130
    158  OG        38.1660   46.8880  113.2980 O.3   183  SER183     -0.2179
    159  N         34.5960   46.4990  116.0810 N.am  184  HIS184     -0.1973
    160  CA        34.0900   46.6300  117.4370 C.3   184  HIS184      0.1656
    161  C         35.1960   46.3900  118.4630 C.2   184  HIS184      0.2291
    162  O         35.0720   46.7080  119.6380 O.2   184  HIS184     -0.2864
    163  CB        32.9760   45.6520  117.7420 C.3   184  HIS184      0.0771
    164  CG        31.7590   45.7440  116.8330 C.ar  184  HIS184      0.0820
    165  ND1       30.8340   44.8180  116.6280 N.ar  184  HIS184     -0.2267
    166  CD2       31.4310   46.8130  116.0520 C.ar  184  HIS184      0.1154
    167  CE1       29.9710   45.2690  115.7720 C.ar  184  HIS184      0.1986
    168  NE2       30.3460   46.4660  115.4380 N.ar  184  HIS184     -0.2212
    169  N         41.7140   53.7430  118.4380 N.3   210  MET210     -0.1245
    170  CA        42.1900   54.0090  117.0790 C.3   210  MET210      0.1570
    171  C         42.3830   55.4890  116.7690 C.2   210  MET210      0.2261
    172  O         43.4520   56.0420  117.0110 O.2   210  MET210     -0.2867
    173  CB        41.2080   53.4030  116.0730 C.3   210  MET210      0.0387
    174  CG        41.0140   51.9040  116.2610 C.3   210  MET210      0.0595
    175  SD        39.9830   51.1190  114.9850 S.3   210  MET210     -0.1393
    176  CE        38.5070   51.0090  115.9520 C.3   210  MET210      0.0692
    177  N         37.4210   59.6230  116.7640 N.3   214  ASP214     -0.1225
    178  CA        36.5000   58.6680  116.1650 C.3   214  ASP214      0.1805
    179  C         35.6560   59.2690  115.0130 C.2   214  ASP214      0.2597
    180  O         36.1950   59.5400  113.9370 O.2   214  ASP214     -0.2718
    181  CB        35.5610   58.1060  117.2430 C.3   214  ASP214      0.1424
    182  CG        36.3260   57.5350  118.4200 C.2   214  ASP214      0.3668
    183  OD1       36.8890   56.4340  118.2900 O.co2 214  ASP214     -0.2456
    184  OD2       36.3820   58.2070  119.4670 O.co2 214  ASP214     -0.2456
    185  N         34.4080   59.6440  115.2560 N.am  215  PHE215     -0.1976
    186  CA        33.5050   60.1290  114.2310 C.3   215  PHE215      0.1639
    187  C         33.0090   61.5590  114.4550 C.2   215  PHE215      0.2290
    188  O         32.0280   62.0000  113.8480 O.2   215  PHE215     -0.2864
    189  CB        32.3010   59.2200  114.1450 C.3   215  PHE215      0.0560
    190  CG        32.6880   57.7660  114.0190 C.ar  215  PHE215     -0.0200
    191  CD1       33.1750   57.2600  112.8150 C.ar  215  PHE215     -0.0042
    192  CD2       32.5780   56.9440  115.1480 C.ar  215  PHE215     -0.0042
    193  CE1       33.5520   55.9130  112.7340 C.ar  215  PHE215     -0.0003
    194  CE2       32.9690   55.6110  115.0600 C.ar  215  PHE215     -0.0003
    195  CZ        33.4630   55.0880  113.8570 C.ar  215  PHE215     -0.0000
    196  N         28.1660   65.7880  118.0210 N.3   218  LEU218     -0.1245
    197  CA        26.9320   66.5210  117.7580 C.3   218  LEU218      0.1561
    198  C         26.8920   67.7040  118.7280 C.2   218  LEU218      0.2260
    199  O         26.9930   67.5530  119.9550 O.2   218  LEU218     -0.2867
    200  CB        25.6710   65.6960  117.9890 C.3   218  LEU218      0.0270
    201  CG        25.4160   64.4900  117.1200 C.3   218  LEU218      0.0019
    202  CD1       24.0310   63.9600  117.4480 C.3   218  LEU218      0.0001
    203  CD2       25.4980   64.8390  115.6480 C.3   218  LEU218      0.0001
    204  N         19.4570   55.2970  118.3280 N.3   239  MET239     -0.1245
    205  CA        20.2500   54.7880  117.2330 C.3   239  MET239      0.1570
    206  C         19.7790   53.4320  116.7230 C.2   239  MET239      0.2261
    207  O         19.5050   52.5180  117.4970 O.2   239  MET239     -0.2867
    208  CB        21.6480   54.7300  117.7670 C.3   239  MET239      0.0387
    209  CG        22.7280   54.6250  116.7390 C.3   239  MET239      0.0595
    210  SD        24.3730   54.3780  117.4710 S.3   239  MET239     -0.1393
    211  CE        24.8720   56.0320  117.9090 C.3   239  MET239      0.0692
@<TRIPOS>BOND
     1   139   138    1
     2   135   134    1
     3   135   136    1
     4   135   138    1
     5   129   130    2
     6   129   128    1
     7   136   137    2
     8   138   140    1
     9   128   127    1
    10   128   131    1
    11    39    40    2
    12    39    38    1
    13   103   102    2
    14   103   104    1
    15   102    99    1
    16    38    37    1
    17    38    41    1
    18   104    98    2
    19    99    98    1
    20    99   100    1
    21   132   131    1
    22   131   133    1
    23    48    49    1
    24    41    42    1
    25   121   120    1
    26   121   122    2
    27   125   123    1
    28   105   100   am
    29   105   106    1
    30   100   101    2
    31   108   107    2
    32   120   123    1
    33   120   119    1
    34   123   124    1
    35   152   151    1
    36    51    50    2
    37   141   142    1
    38    95    93   ar
    39    95    96   ar
    40   151   150   ar
    41   151   149   ar
    42    49    50    1
    43    49    52    1
    44    93    91   ar
    45   107   106    1
    46   107   111   am
    47   106   109    1
    48    42    43   ar
    49    42    44   ar
    50   150   148   ar
    51   149   147   ar
    52   124   126    1
    53   109   110    1
    54    43    45   ar
    55    97    96    1
    56   148   146   ar
    57   147   146   ar
    58    52    53    1
    59    44    46   ar
    60    96    94   ar
    61   142   145    1
    62   142   143    1
    63   116   118    1
    64   116   115    1
    65   146   145    1
    66   111   112    1
    67    89    88    2
    68   112   115    1
    69   112   113    1
    70    91    90    1
    71    91    92   ar
    72    90    87    1
    73    45    47   ar
    74   143   144    2
    75   143   153   am
    76   115   117    1
    77    46    47   ar
    78   193   191   ar
    79   193   195   ar
    80   191   190   ar
    81   113   114    2
    82    94    92   ar
    83    56    57    1
    84    88    87    1
    85    53    54    1
    86   153   154    1
    87    87    86    1
    88   158   157    1
    89    62    64   ar
    90    62    61   ar
    91    59    58    2
    92    64    66   ar
    93    54    55    1
    94   188   187    2
    95   195   194   ar
    96    81    80    2
    97   180   179    2
    98   190   189    1
    99   190   192   ar
   100   189   186    1
   101    57    60    1
   102    57    58    1
   103   154   157    1
   104   154   155    1
   105   186   187    1
   106   186   185    1
   107    60    61    1
   108    61    63   ar
   109    75    77   ar
   110    75    73   ar
   111   175   176    1
   112   175   174    1
   113   179   185   am
   114   179   178    1
   115   194   192   ar
   116    80    79    1
   117    66    65   ar
   118   168   167   ar
   119   168   166   ar
   120    77    76   ar
   121   155   159   am
   122   155   156    2
   123    73    72   ar
   124   203   201    1
   125     8     6    1
   126   167   165   ar
   127    63    65   ar
   128   166   164   ar
   129   173   174    1
   130   173   170    1
   131   159   160    1
   132    78    79    1
   133   178   177    1
   134   178   181    1
   135    79    82    1
   136    82    84    1
   137    82    83    1
   138   165   164   ar
   139     7     5    1
   140   206   205    1
   141   206   207    2
   142   209   210    1
   143   209   208    1
   144   171   172    2
   145   171   170    1
   146   164   163    1
   147    76    74   ar
   148    72    74   ar
   149    72    71    1
   150   170   169    1
   151     6     5    1
   152   201   202    1
   153   201   200    1
   154    67    68    1
   155    85    83    1
   156   205   208    1
   157   205   204    1
   158     5     2    1
   159   181   182    1
   160   160   163    1
   161   160   161    1
   162   210   211    1
   163   197   200    1
   164   197   196    1
   165   197   198    1
   166    71    68    1
   167    25    23   ar
   168    25    26   ar
   169   183   182   ar
   170    68    69    1
   171   182   184   ar
   172   161   162    2
   173    70    69    2
   174    23    21   ar
   175     4     3    2
   176     2     3    1
   177     2     1    1
   178   198   199    2
   179    27    26    1
   180     3     9   am
   181    26    24   ar
   182     9    10    1
   183    21    20    1
   184    21    22   ar
   185    10    11    1
   186    10    13    1
   187    20    17    1
   188    24    22   ar
   189    16    11   am
   190    16    17    1
   191    11    12    2
   192    17    18    1
   193    13    14    1
   194    13    15    1
   195    36    35    1
   196    35    34    1
   197    18    28   am
   198    18    19    2
   199    28    29    1
   200    34    33    1
   201    33    32    1
   202    32    29    1
   203    29    30    1
   204    30    31    2
