@<TRIPOS>MOLECULE
tmp/1vbcB00.pdb
 205 197 0 0 0
SMALL
GASTEIGER

@<TRIPOS>ATOM
      1  N         30.0150   61.3440  119.3110 N.3    87  ILE87      -0.1231
      2  CA        29.1270   60.2850  118.8920 C.3    87  ILE87       0.1692
      3  C         29.7140   58.9110  119.1820 C.2    87  ILE87       0.2593
      4  O         30.8780   58.6040  118.9190 O.2    87  ILE87      -0.2718
      5  CB        28.8260   60.4630  117.4010 C.3    87  ILE87       0.0266
      6  CG1       28.1870   61.8100  117.1810 C.3    87  ILE87       0.0019
      7  CG2       27.8430   59.3920  116.9120 C.3    87  ILE87       0.0020
      8  CD1       28.5860   62.4110  115.8480 C.3    87  ILE87       0.0001
      9  N         28.8820   58.0860  119.7910 N.am   88  THR88      -0.1939
     10  CA        29.2610   56.7500  120.2190 C.3    88  THR88       0.2028
     11  C         28.0840   55.8450  120.6090 C.2    88  THR88       0.2642
     12  O         27.0200   56.3460  120.9980 O.2    88  THR88      -0.2714
     13  CB        30.1900   56.8550  121.4320 C.3    88  THR88       0.1808
     14  OG1       30.5820   55.5250  121.7880 O.3    88  THR88      -0.2208
     15  CG2       29.5320   57.5410  122.6150 C.3    88  THR88       0.0379
     16  N         28.2270   54.5100  120.5470 N.am   89  TYR89      -0.1959
     17  CA        27.2450   53.6130  121.1640 C.3    89  TYR89       0.1771
     18  C         27.6790   53.1510  122.5560 C.2    89  TYR89       0.2619
     19  O         26.9810   52.4090  123.2450 O.2    89  TYR89      -0.2715
     20  CB        27.0020   52.3730  120.3050 C.3    89  TYR89       0.0574
     21  CG        28.2160   51.5260  119.9030 C.ar   89  TYR89      -0.0198
     22  CD1       28.9280   50.7990  120.8480 C.ar   89  TYR89      -0.0009
     23  CD2       28.5970   51.4840  118.5640 C.ar   89  TYR89      -0.0009
     24  CE1       30.0370   50.0470  120.4610 C.ar   89  TYR89       0.0417
     25  CE2       29.6880   50.7270  118.1780 C.ar   89  TYR89       0.0417
     26  CZ        30.4050   50.0090  119.1220 C.ar   89  TYR89       0.1957
     27  OH        31.4790   49.2220  118.7320 O.3    89  TYR89      -0.2866
     28  N         28.8500   53.5770  123.0220 N.am   90  LYS90      -0.1977
     29  CA        29.4210   53.1260  124.2950 C.3    90  LYS90       0.1596
     30  C         29.0290   53.8230  125.6070 C.2    90  LYS90       0.2287
     31  O         29.4510   53.4020  126.6850 O.2    90  LYS90      -0.2864
     32  CB        30.9440   53.1410  124.1910 C.3    90  LYS90       0.0298
     33  CG        31.4950   52.3030  123.0550 C.3    90  LYS90       0.0038
     34  CD        32.8380   51.7730  123.4500 C.3    90  LYS90       0.0206
     35  CE        33.4680   51.0790  122.2750 C.3    90  LYS90       0.1093
     36  NZ        34.8290   50.7110  122.5940 N.3    90  LYS90      -0.1314
     37  N         27.1460   48.7520  108.3480 N.3   107  PHE107     -0.1241
     38  CA        25.7490   49.1720  108.2770 C.3   107  PHE107      0.1605
     39  C         25.5340   50.6590  108.0570 C.2   107  PHE107      0.2264
     40  O         26.4450   51.4910  108.2010 O.2   107  PHE107     -0.2867
     41  CB        24.9670   48.8190  109.5780 C.3   107  PHE107      0.0534
     42  CG        25.6260   49.2100  110.8930 C.ar  107  PHE107     -0.0203
     43  CD1       25.6180   50.5420  111.3230 C.ar  107  PHE107     -0.0042
     44  CD2       26.2920   48.2350  111.6370 C.ar  107  PHE107     -0.0042
     45  CE1       26.2740   50.8860  112.5040 C.ar  107  PHE107     -0.0003
     46  CE2       26.9420   48.5900  112.8030 C.ar  107  PHE107     -0.0003
     47  CZ        26.9340   49.9120  113.2450 C.ar  107  PHE107     -0.0000
     48  N         23.2960   53.9450  109.4560 N.3   109  MET109     -0.1245
     49  CA        22.7960   54.2730  110.7800 C.3   109  MET109      0.1570
     50  C         21.6390   55.2690  110.7920 C.2   109  MET109      0.2261
     51  O         21.7000   56.3550  110.2140 O.2   109  MET109     -0.2867
     52  CB        23.9460   54.8070  111.6020 C.3   109  MET109      0.0387
     53  CG        23.6600   55.0590  113.0680 C.3   109  MET109      0.0595
     54  SD        23.4590   53.4990  113.9600 S.3   109  MET109     -0.1393
     55  CE        25.0910   53.3340  114.6610 C.3   109  MET109      0.0692
     56  N         19.3350   57.7470  113.0690 N.3   111  PHE111     -0.1241
     57  CA        19.2460   58.5460  114.2880 C.3   111  PHE111      0.1605
     58  C         17.8850   59.2200  114.4490 C.2   111  PHE111      0.2264
     59  O         17.4270   59.9750  113.5820 O.2   111  PHE111     -0.2867
     60  CB        20.2760   59.6500  114.2950 C.3   111  PHE111      0.0534
     61  CG        21.6850   59.2570  114.6670 C.ar  111  PHE111     -0.0203
     62  CD1       22.5810   58.7990  113.6960 C.ar  111  PHE111     -0.0042
     63  CD2       22.0900   59.3720  115.9900 C.ar  111  PHE111     -0.0042
     64  CE1       23.8910   58.4620  114.0760 C.ar  111  PHE111     -0.0003
     65  CE2       23.3910   59.0400  116.3590 C.ar  111  PHE111     -0.0003
     66  CZ        24.2940   58.5900  115.4020 C.ar  111  PHE111     -0.0000
     67  N         15.7100   61.6810  117.1840 N.3   113  PHE113     -0.1241
     68  CA        15.8820   62.5550  118.3390 C.3   113  PHE113      0.1605
     69  C         14.6320   62.9300  119.1230 C.2   113  PHE113      0.2264
     70  O         13.7760   63.6700  118.6450 O.2   113  PHE113     -0.2867
     71  CB        16.5330   63.8360  117.8910 C.3   113  PHE113      0.0534
     72  CG        17.8010   63.6730  117.0840 C.ar  113  PHE113     -0.0203
     73  CD1       17.7300   63.5020  115.7020 C.ar  113  PHE113     -0.0042
     74  CD2       19.0440   63.7260  117.7410 C.ar  113  PHE113     -0.0042
     75  CE1       18.9130   63.3790  114.9700 C.ar  113  PHE113     -0.0003
     76  CE2       20.2190   63.6100  116.9990 C.ar  113  PHE113     -0.0003
     77  CZ        20.1530   63.4310  115.6250 C.ar  113  PHE113     -0.0000
     78  N         20.7190   71.0170  116.1690 N.3   134  ILE134     -0.1245
     79  CA        21.6650   69.9270  116.3000 C.3   134  ILE134      0.1561
     80  C         22.6420   70.0190  115.1080 C.2   134  ILE134      0.2260
     81  O         22.2770   69.8570  113.9520 O.2   134  ILE134     -0.2867
     82  CB        20.8690   68.5920  116.3080 C.3   134  ILE134      0.0252
     83  CG1       19.9080   68.5860  117.4820 C.3   134  ILE134      0.0019
     84  CG2       21.8110   67.4140  116.3880 C.3   134  ILE134      0.0019
     85  CD1       19.0550   67.3130  117.6190 C.3   134  ILE134      0.0001
     86  N         26.1620   68.4880  113.3430 N.3   136  TYR136     -0.1241
     87  CA        27.2210   67.4960  113.3280 C.3   136  TYR136      0.1605
     88  C         28.5500   68.1670  113.0120 C.2   136  TYR136      0.2264
     89  O         28.7160   68.8030  111.9720 O.2   136  TYR136     -0.2867
     90  CB        26.9530   66.4380  112.2780 C.3   136  TYR136      0.0534
     91  CG        28.0780   65.4260  112.0670 C.ar  136  TYR136     -0.0201
     92  CD1       28.7990   64.8780  113.1330 C.ar  136  TYR136     -0.0009
     93  CD2       28.3820   65.0450  110.7680 C.ar  136  TYR136     -0.0009
     94  CE1       29.8110   63.9470  112.9020 C.ar  136  TYR136      0.0417
     95  CE2       29.3920   64.1190  110.5240 C.ar  136  TYR136      0.0417
     96  CZ        30.0980   63.5780  111.5910 C.ar  136  TYR136      0.1957
     97  OH        31.0760   62.6520  111.3300 O.3   136  TYR136     -0.2866
     98  N         26.3060   69.2330  108.2850 N.2   158  PRO158     -0.2584
     99  CA        24.8920   68.9460  108.4140 C.3   158  PRO158      0.1895
    100  C         24.2950   69.4550  109.7360 C.2   158  PRO158      0.2359
    101  O         24.8120   69.2290  110.8330 O.2   158  PRO158     -0.2858
    102  CB        24.7590   67.4540  108.3140 C.2   158  PRO158      0.0071
    103  CG        26.1360   66.8740  108.1910 C.2   158  PRO158      0.0180
    104  CD        27.1350   68.0350  108.1740 C.2   158  PRO158      0.0937
    105  N         20.4100   69.8960  111.9620 N.3   160  ILE160     -0.1245
    106  CA        18.9790   69.7370  112.1240 C.3   160  ILE160      0.1561
    107  C         18.3760   70.8500  112.9720 C.2   160  ILE160      0.2260
    108  O         18.8320   71.2020  114.0420 O.2   160  ILE160     -0.2867
    109  CB        18.6180   68.3730  112.7630 C.3   160  ILE160      0.0252
    110  CG1       18.9010   67.2600  111.8000 C.3   160  ILE160      0.0019
    111  CG2       17.1340   68.2740  113.0960 C.3   160  ILE160      0.0019
    112  CD1       18.6940   65.8800  112.4400 C.3   160  ILE160      0.0001
    113  N         17.0050   61.1870  110.9000 N.3   171  ILE171     -0.1245
    114  CA        17.9070   61.2100  109.7500 C.3   171  ILE171      0.1561
    115  C         18.6690   59.8930  109.5840 C.2   171  ILE171      0.2260
    116  O         18.8490   59.1200  110.5180 O.2   171  ILE171     -0.2867
    117  CB        18.9860   62.3320  109.8270 C.3   171  ILE171      0.0252
    118  CG1       19.6290   62.3240  111.2060 C.3   171  ILE171      0.0019
    119  CG2       18.3850   63.6820  109.4990 C.3   171  ILE171      0.0019
    120  CD1       21.1500   62.2780  111.0850 C.3   171  ILE171      0.0001
    121  N         22.3510   58.0210  108.1370 N.3   173  VAL173     -0.1245
    122  CA        23.7810   58.2260  107.9010 C.3   173  VAL173      0.1561
    123  C         24.3530   56.9960  107.1740 C.2   173  VAL173      0.2260
    124  O         24.0150   55.8550  107.5100 O.2   173  VAL173     -0.2867
    125  CB        24.4940   58.4810  109.2690 C.3   173  VAL173      0.0252
    126  CG1       26.0000   58.4100  109.1690 C.3   173  VAL173      0.0019
    127  CG2       24.1780   59.9000  109.7040 C.3   173  VAL173      0.0019
    128  N         30.0220   55.2190  107.1290 N.3   176  VAL176     -0.1245
    129  CA        31.1260   56.1920  107.1010 C.3   176  VAL176      0.1561
    130  C         32.5010   55.7740  107.6080 C.2   176  VAL176      0.2260
    131  O         33.3550   56.6140  107.9400 O.2   176  VAL176     -0.2867
    132  CB        30.7270   57.5100  107.8460 C.3   176  VAL176      0.0252
    133  CG1       29.6560   58.2270  107.0570 C.3   176  VAL176      0.0019
    134  CG2       30.2380   57.2140  109.2480 C.3   176  VAL176      0.0019
    135  N         33.4490   48.5980  110.2750 N.3   182  TYR182     -0.1227
    136  CA        33.6580   49.1860  111.5970 C.3   182  TYR182      0.1736
    137  C         34.2640   48.1100  112.5230 C.2   182  TYR182      0.2596
    138  O         33.7550   46.9770  112.6260 O.2   182  TYR182     -0.2718
    139  CB        32.3620   49.6530  112.2760 C.3   182  TYR182      0.0548
    140  CG        31.6070   50.8030  111.6550 C.ar  182  TYR182     -0.0200
    141  CD1       32.2420   52.0160  111.3610 C.ar  182  TYR182     -0.0009
    142  CD2       30.2400   50.6610  111.3790 C.ar  182  TYR182     -0.0009
    143  CE1       31.5310   53.0690  110.7750 C.ar  182  TYR182      0.0417
    144  CE2       29.5270   51.7090  110.7910 C.ar  182  TYR182      0.0417
    145  CZ        30.1770   52.9000  110.4960 C.ar  182  TYR182      0.1957
    146  OH        29.4830   53.9360  109.9140 O.3   182  TYR182     -0.2866
    147  N         35.3730   48.3810  113.1760 N.am  183  SER183     -0.1938
    148  CA        35.9050   47.4450  114.1710 C.3   183  SER183      0.2055
    149  C         35.3050   47.6290  115.5580 C.2   183  SER183      0.2643
    150  O         35.4590   48.6650  116.2070 O.2   183  SER183     -0.2714
    151  CB        37.4200   47.5730  114.3350 C.3   183  SER183      0.2130
    152  OG        38.1310   47.1980  113.1660 O.3   183  SER183     -0.2179
    153  N         34.5630   46.6500  116.0630 N.am  184  HIS184     -0.1973
    154  CA        34.0560   46.7340  117.4250 C.3   184  HIS184      0.1656
    155  C         35.1540   46.5140  118.4840 C.2   184  HIS184      0.2291
    156  O         34.9920   46.8200  119.6570 O.2   184  HIS184     -0.2864
    157  CB        32.9720   45.7100  117.6960 C.3   184  HIS184      0.0771
    158  CG        31.7250   45.8490  116.8520 C.ar  184  HIS184      0.0820
    159  ND1       30.8450   44.9020  116.5610 N.ar  184  HIS184     -0.2267
    160  CD2       31.3190   46.9960  116.2200 C.ar  184  HIS184      0.1154
    161  CE1       29.9360   45.4160  115.7860 C.ar  184  HIS184      0.1986
    162  NE2       30.2260   46.6640  115.5850 N.ar  184  HIS184     -0.2212
    163  N         41.8040   53.7250  118.4320 N.3   210  MET210     -0.1245
    164  CA        42.2670   54.0630  117.0930 C.3   210  MET210      0.1570
    165  C         42.3380   55.5720  116.8820 C.2   210  MET210      0.2261
    166  O         43.2590   56.2290  117.3620 O.2   210  MET210     -0.2867
    167  CB        41.3180   53.4260  116.0650 C.3   210  MET210      0.0387
    168  CG        40.9590   51.9670  116.3040 C.3   210  MET210      0.0595
    169  SD        40.1140   51.1920  114.9110 S.3   210  MET210     -0.1393
    170  CE        38.4950   51.2370  115.5880 C.3   210  MET210      0.0692
    171  N         37.5010   59.8000  116.7460 N.3   214  ASP214     -0.1225
    172  CA        36.8040   58.7940  115.9330 C.3   214  ASP214      0.1805
    173  C         35.7160   59.2530  114.9470 C.2   214  ASP214      0.2597
    174  O         36.0460   59.3700  113.7630 O.2   214  ASP214     -0.2718
    175  CB        36.2440   57.6830  116.8590 C.3   214  ASP214      0.1424
    176  CG        35.6740   58.1690  118.1860 C.2   214  ASP214      0.3668
    177  OD1       34.5010   58.5630  118.2090 O.co2 214  ASP214     -0.2456
    178  OD2       36.4050   58.1780  119.1780 O.co2 214  ASP214     -0.2456
    179  N         34.4990   59.5910  115.3020 N.am  215  PHE215     -0.1976
    180  CA        33.5290   60.0640  114.3080 C.3   215  PHE215      0.1639
    181  C         33.0630   61.5210  114.4470 C.2   215  PHE215      0.2290
    182  O         32.2520   62.0320  113.6780 O.2   215  PHE215     -0.2864
    183  CB        32.2720   59.2150  114.2900 C.3   215  PHE215      0.0560
    184  CG        32.5150   57.7470  114.0590 C.ar  215  PHE215     -0.0200
    185  CD1       32.8730   57.2630  112.8150 C.ar  215  PHE215     -0.0042
    186  CD2       32.3920   56.8870  115.1500 C.ar  215  PHE215     -0.0042
    187  CE1       33.0980   55.8960  112.6550 C.ar  215  PHE215     -0.0003
    188  CE2       32.6290   55.5340  114.9910 C.ar  215  PHE215     -0.0003
    189  CZ        32.9750   55.0260  113.7470 C.ar  215  PHE215     -0.0000
    190  N         28.2090   65.8320  118.0830 N.3   218  LEU218     -0.1245
    191  CA        26.9570   66.5220  117.8590 C.3   218  LEU218      0.1561
    192  C         26.8820   67.6940  118.8340 C.2   218  LEU218      0.2260
    193  O         27.0190   67.5490  120.0540 O.2   218  LEU218     -0.2867
    194  CB        25.7410   65.6400  118.1010 C.3   218  LEU218      0.0270
    195  CG        25.3920   64.5880  117.0990 C.3   218  LEU218      0.0019
    196  CD1       24.0000   64.1060  117.4030 C.3   218  LEU218      0.0001
    197  CD2       25.3680   65.1500  115.6940 C.3   218  LEU218      0.0001
    198  N         19.4810   55.3380  118.4120 N.3   239  MET239     -0.1245
    199  CA        20.2880   54.8070  117.3480 C.3   239  MET239      0.1570
    200  C         19.7720   53.4880  116.8090 C.2   239  MET239      0.2261
    201  O         19.4070   52.6150  117.5990 O.2   239  MET239     -0.2867
    202  CB        21.6680   54.6420  117.9280 C.3   239  MET239      0.0387
    203  CG        22.8320   54.6440  116.9630 C.3   239  MET239      0.0595
    204  SD        24.3920   54.4550  117.8770 S.3   239  MET239     -0.1393
    205  CE        25.0060   56.1310  117.9270 C.3   239  MET239      0.0692
@<TRIPOS>BOND
     1   133   132    1
     2   129   128    1
     3   129   130    1
     4   129   132    1
     5   123   124    2
     6   123   122    1
     7   130   131    2
     8   132   134    1
     9   122   121    1
    10   122   125    1
    11    39    40    2
    12    39    38    1
    13   104   103    1
    14   104    98    2
    15   103   102    2
    16    38    37    1
    17    38    41    1
    18    98    99    1
    19   102    99    1
    20    99   100    1
    21   126   125    1
    22   125   127    1
    23    48    49    1
    24   119   117    1
    25    41    42    1
    26   115   114    1
    27   115   116    2
    28   100   101    2
    29   114   117    1
    30   114   113    1
    31   117   118    1
    32   146   145    1
    33    51    50    2
    34   135   136    1
    35   145   143   ar
    36   145   144   ar
    37    95    93   ar
    38    95    96   ar
    39    93    91   ar
    40   143   141   ar
    41    49    50    1
    42    49    52    1
    43   144   142   ar
    44    42    43   ar
    45    42    44   ar
    46   120   118    1
    47    43    45   ar
    48    97    96    1
    49   141   140   ar
    50   142   140   ar
    51    96    94   ar
    52   136   139    1
    53   136   137    1
    54    52    53    1
    55    44    46   ar
    56   140   139    1
    57   110   112    1
    58   110   109    1
    59   105   106    1
    60    89    88    2
    61    91    90    1
    62    91    92   ar
    63   106   109    1
    64   106   107    1
    65    90    87    1
    66    45    47   ar
    67   137   138    2
    68   137   147   am
    69   187   185   ar
    70   187   189   ar
    71   109   111    1
    72    46    47   ar
    73   185   184   ar
    74    94    92   ar
    75   107   108    2
    76    88    87    1
    77    53    54    1
    78    56    57    1
    79   152   151    1
    80   147   148    1
    81    87    86    1
    82    59    58    2
    83   182   181    2
    84    62    64   ar
    85    62    61   ar
    86   189   188   ar
    87   174   173    2
    88    81    80    2
    89    54    55    1
    90   184   183    1
    91   184   186   ar
    92    64    66   ar
    93   148   151    1
    94   148   149    1
    95    57    60    1
    96    57    58    1
    97   183   180    1
    98    60    61    1
    99   180   181    1
   100   180   179    1
   101    61    63   ar
   102   169   170    1
   103   169   168    1
   104   173   179   am
   105   173   172    1
   106    75    77   ar
   107    75    73   ar
   108   188   186   ar
   109    80    79    1
   110    66    65   ar
   111   149   153   am
   112   149   150    2
   113   162   161   ar
   114   162   160   ar
   115    77    76   ar
   116   197   195    1
   117    73    72   ar
   118   161   159   ar
   119     8     6    1
   120   172   171    1
   121   172   175    1
   122    63    65   ar
   123   153   154    1
   124   167   168    1
   125   167   164    1
   126    78    79    1
   127   160   158   ar
   128    79    82    1
   129    82    84    1
   130    82    83    1
   131   159   158   ar
   132   200   199    1
   133   200   201    2
   134   158   157    1
   135   175   176    1
   136   165   164    1
   137   165   166    2
   138     7     5    1
   139   203   204    1
   140   203   202    1
   141    76    74   ar
   142    72    74   ar
   143    72    71    1
   144   164   163    1
   145   195   196    1
   146   195   194    1
   147     6     5    1
   148    67    68    1
   149   199   202    1
   150   199   198    1
   151     5     2    1
   152   154   157    1
   153   154   155    1
   154    83    85    1
   155   191   190    1
   156   191   194    1
   157   191   192    1
   158   204   205    1
   159    71    68    1
   160    25    23   ar
   161    25    26   ar
   162   176   177   ar
   163   176   178   ar
   164    68    69    1
   165   155   156    2
   166    23    21   ar
   167    70    69    2
   168    27    26    1
   169   192   193    2
   170     2     3    1
   171     2     1    1
   172     4     3    2
   173    26    24   ar
   174     3     9   am
   175     9    10    1
   176    21    20    1
   177    21    22   ar
   178    10    11    1
   179    10    13    1
   180    20    17    1
   181    24    22   ar
   182    16    11   am
   183    16    17    1
   184    11    12    2
   185    17    18    1
   186    13    14    1
   187    13    15    1
   188    35    36    1
   189    35    34    1
   190    18    28   am
   191    18    19    2
   192    28    29    1
   193    33    34    1
   194    33    32    1
   195    32    29    1
   196    29    30    1
   197    30    31    2
