@<TRIPOS>MOLECULE
tmp/1vbhA00.pdb
 130 120 0 0 0
SMALL
GASTEIGER

@<TRIPOS>ATOM
      1  N         22.9100   43.0130   -2.0520 N.3   548  LEU548     -0.1245
      2  CA        22.0440   44.0770   -2.5390 C.3   548  LEU548      0.1561
      3  C         22.6760   45.4530   -2.6260 C.2   548  LEU548      0.2260
      4  O         23.0190   46.0600   -1.6150 O.2   548  LEU548     -0.2867
      5  CB        20.7690   44.1810   -1.6940 C.3   548  LEU548      0.0270
      6  CG        19.7780   45.3020   -2.0490 C.3   548  LEU548      0.0019
      7  CD1       19.2060   45.0460   -3.4330 C.3   548  LEU548      0.0001
      8  CD2       18.6560   45.3530   -1.0060 C.3   548  LEU548      0.0001
      9  N         21.5470   48.8880   -3.9880 N.3   550  ARG550     -0.1245
     10  CA        20.3690   49.6820   -4.3890 C.3   550  ARG550      0.1563
     11  C         20.7670   50.8520   -5.3100 C.2   550  ARG550      0.2260
     12  O         21.2900   51.8580   -4.8410 O.2   550  ARG550     -0.2867
     13  CB        19.6940   50.2340   -3.1310 C.3   550  ARG550      0.0307
     14  CG        18.8990   49.2140   -2.3140 C.3   550  ARG550      0.0489
     15  CD        18.6020   49.7300   -0.8980 C.3   550  ARG550      0.2205
     16  NE        17.5340   48.9780   -0.2310 N.pl3 550  ARG550     -0.0865
     17  CZ        17.6640   48.3350    0.9360 C.cat 550  ARG550      0.5346
     18  NH1       18.8340   48.3320    1.5870 N.pl3 550  ARG550      0.1354
     19  NH2       16.6130   47.7150    1.4670 N.pl3 550  ARG550      0.1354
     20  N         19.0740   53.2080   -6.6750 N.3   552  GLU552     -0.1231
     21  CA        18.4690   54.5130   -6.4010 C.3   552  GLU552      0.1699
     22  C         19.2950   55.2880   -5.3750 C.2   552  GLU552      0.2592
     23  O         19.4500   56.5130   -5.4710 O.2   552  GLU552     -0.2718
     24  CB        17.0210   54.3820   -5.8980 C.3   552  GLU552      0.0402
     25  CG        16.7850   53.4310   -4.7360 C.3   552  GLU552      0.1161
     26  CD        16.6640   51.9940   -5.1730 C.2   552  GLU552      0.3649
     27  OE1       16.9380   51.6980   -6.3630 O.co2 552  GLU552     -0.2457
     28  OE2       16.2990   51.1550   -4.3180 O.co2 552  GLU552     -0.2457
     29  N         19.8580   54.5770   -4.4120 N.am  553  HIS553     -0.1976
     30  CA        20.6510   55.2380   -3.3940 C.3   553  HIS553      0.1656
     31  C         21.9700   55.7880   -3.9540 C.2   553  HIS553      0.2291
     32  O         22.6280   56.5910   -3.3080 O.2   553  HIS553     -0.2864
     33  CB        20.9090   54.2820   -2.2140 C.3   553  HIS553      0.0771
     34  CG        19.6710   53.9540   -1.4130 C.ar  553  HIS553      0.0820
     35  ND1       19.6890   53.0530   -0.3570 N.ar  553  HIS553     -0.2267
     36  CD2       18.4060   54.4030   -1.4980 C.ar  553  HIS553      0.1154
     37  CE1       18.4750   52.9740    0.1620 C.ar  553  HIS553      0.1986
     38  NE2       17.6740   53.7800   -0.5060 N.ar  553  HIS553     -0.2212
     39  N         20.7000   45.7830   -8.0000 N.3   607  ARG607     -0.1245
     40  CA        19.2590   45.8780   -8.2530 C.3   607  ARG607      0.1563
     41  C         18.9120   47.0950   -9.1070 C.2   607  ARG607      0.2260
     42  O         19.4180   48.2030   -8.8840 O.2   607  ARG607     -0.2867
     43  CB        18.4880   45.9790   -6.9310 C.3   607  ARG607      0.0307
     44  CG        16.9910   45.6950   -7.0780 C.3   607  ARG607      0.0489
     45  CD        16.2430   45.7110   -5.7410 C.3   607  ARG607      0.2205
     46  NE        16.1600   47.0530   -5.1470 N.pl3 607  ARG607     -0.0865
     47  CZ        15.7280   47.2880   -3.8890 C.cat 607  ARG607      0.5346
     48  NH1       15.3550   46.2870   -3.1110 N.pl3 607  ARG607      0.1354
     49  NH2       15.6650   48.5140   -3.3770 N.pl3 607  ARG607      0.1354
     50  N         14.3540   51.1050   -8.2440 N.3   610  ASP610     -0.1239
     51  CA        13.1440   50.6680   -7.5500 C.3   610  ASP610      0.1674
     52  C         12.1700   51.7980   -7.0490 C.2   610  ASP610      0.2266
     53  O         10.9670   51.6420   -7.1340 O.2   610  ASP610     -0.2867
     54  CB        13.5350   49.8240   -6.3220 C.3   610  ASP610      0.1410
     55  CG        12.3220   49.4140   -5.4660 C.2   610  ASP610      0.3668
     56  OD1       11.2120   49.1730   -6.0370 O.co2 610  ASP610     -0.2456
     57  OD2       12.4590   49.3210   -4.2080 O.co2 610  ASP610     -0.2456
     58  N          4.0700   53.2120   -2.1140 N.3   653  MET653     -0.1245
     59  CA         4.7080   51.9150   -1.8760 C.3   653  MET653      0.1570
     60  C          4.2200   50.8630   -2.8750 C.2   653  MET653      0.2261
     61  O          4.9320   49.8980   -3.1580 O.2   653  MET653     -0.2867
     62  CB         4.4620   51.4280   -0.4400 C.3   653  MET653      0.0387
     63  CG         5.4470   51.9950    0.5790 C.3   653  MET653      0.0595
     64  SD         7.1520   51.3860    0.3570 S.3   653  MET653     -0.1393
     65  CE         7.7590   51.4500    2.0160 C.3   653  MET653      0.0692
     66  N          6.5400   51.9830   -9.6020 N.3   657  ARG657     -0.1245
     67  CA         7.9340   51.7990   -9.2130 C.3   657  ARG657      0.1563
     68  C          8.4670   50.4200   -9.5970 C.2   657  ARG657      0.2260
     69  O          7.7470   49.5970  -10.1670 O.2   657  ARG657     -0.2867
     70  CB         8.1250   52.0330   -7.7020 C.3   657  ARG657      0.0307
     71  CG         7.3070   51.1420   -6.7380 C.3   657  ARG657      0.0489
     72  CD         8.2130   50.5660   -5.6140 C.3   657  ARG657      0.2205
     73  NE         7.4750   50.0850   -4.4460 N.pl3 657  ARG657     -0.0865
     74  CZ         7.9870   49.3070   -3.4890 C.cat 657  ARG657      0.5346
     75  NH1        7.2320   48.9290   -2.4720 N.pl3 657  ARG657      0.1354
     76  NH2        9.2460   48.8910   -3.5470 N.pl3 657  ARG657      0.1354
     77  N         13.9180   39.8560   -7.2520 N.3   734  MET734     -0.1245
     78  CA        13.4500   40.0120   -5.9020 C.3   734  MET734      0.1570
     79  C         12.1040   39.2970   -5.7700 C.2   734  MET734      0.2261
     80  O         11.3130   39.2290   -6.6980 O.2   734  MET734     -0.2867
     81  CB        13.2090   41.4950   -5.5940 C.3   734  MET734      0.0387
     82  CG        14.4860   42.2780   -5.3110 C.3   734  MET734      0.0595
     83  SD        15.0030   42.1460   -3.6160 S.3   734  MET734     -0.1393
     84  CE        14.0730   43.4700   -2.9090 C.3   734  MET734      0.0692
     85  N          9.2850   39.9430   -3.3620 N.3   736  GLU736     -0.1245
     86  CA         8.7270   40.8030   -2.3210 C.3   736  GLU736      0.1567
     87  C          7.2360   41.0260   -2.4700 C.2   736  GLU736      0.2260
     88  O          6.6000   41.7040   -1.6710 O.2   736  GLU736     -0.2867
     89  CB         9.4210   42.1560   -2.3290 C.3   736  GLU736      0.0388
     90  CG         9.6480   42.7220   -3.7230 C.3   736  GLU736      0.1160
     91  CD        10.5970   43.9370   -3.7020 C.2   736  GLU736      0.3649
     92  OE1       10.8420   44.4980   -2.5950 O.co2 736  GLU736     -0.2457
     93  OE2       11.1100   44.3500   -4.7890 O.co2 736  GLU736     -0.2457
     94  N         12.7200   40.0690   -0.2910 N.3   757  GLY757     -0.1210
     95  CA        12.6240   41.4240    0.2090 C.3   757  GLY757      0.1956
     96  C         11.4990   41.4020    1.2210 C.2   757  GLY757      0.2613
     97  O         10.3820   41.8660    0.9680 O.2   757  GLY757     -0.2717
     98  N         11.8260   40.8310    2.3810 N.am  758  THR758     -0.1938
     99  CA        10.9160   40.6580    3.4960 C.3   758  THR758      0.2028
    100  C         10.3750   41.9850    4.0420 C.2   758  THR758      0.2642
    101  O          9.3890   42.0290    4.7350 O.2   758  THR758     -0.2714
    102  CB        11.6050   39.8930    4.6400 C.3   758  THR758      0.1808
    103  OG1       12.8940   40.4580    4.8700 O.3   758  THR758     -0.2208
    104  CG2       11.7980   38.4200    4.3110 C.3   758  THR758      0.0379
    105  N         11.0140   43.1070    3.6970 N.am  759  ASN759     -0.1957
    106  CA        10.4930   44.3980    4.1650 C.3   759  ASN759      0.1819
    107  C          9.1420   44.6560    3.5060 C.2   759  ASN759      0.2621
    108  O          8.1330   44.9130    4.1670 O.2   759  ASN759     -0.2715
    109  CB        11.4360   45.5560    3.7570 C.3   759  ASN759      0.1195
    110  CG        12.8350   45.4280    4.4050 C.2   759  ASN759      0.2630
    111  OD1       12.9870   44.7460    5.3880 O.2   759  ASN759     -0.2716
    112  ND2       13.8240   46.1100    3.8310 N.am  759  ASN759     -0.0877
    113  N          9.1680   44.5660    2.1730 N.am  760  ASP760     -0.1971
    114  CA         8.0060   44.7690    1.3270 C.3   760  ASP760      0.1709
    115  C          7.0340   43.5920    1.4180 C.2   760  ASP760      0.2293
    116  O          5.8180   43.7600    1.4160 O.2   760  ASP760     -0.2864
    117  CB         8.4470   44.9400   -0.1300 C.3   760  ASP760      0.1436
    118  CG         8.8000   46.4030   -0.4720 C.2   760  ASP760      0.3671
    119  OD1        8.4040   47.3290    0.3010 O.co2 760  ASP760     -0.2456
    120  OD2        9.4760   46.6510   -1.5170 O.co2 760  ASP760     -0.2456
    121  N         17.3610   39.7660    1.4970 N.3   822  CYS822     -0.1221
    122  CA        18.0320   41.0430    1.7200 C.3   822  CYS822      0.1808
    123  C         17.2000   42.0410    2.5330 C.2   822  CYS822      0.2601
    124  O         17.6000   43.1840    2.7150 O.2   822  CYS822     -0.2717
    125  CB        18.4850   41.6740    0.3820 C.3   822  CYS822      0.0970
    126  SG        17.2650   41.8180   -0.9790 S.3   822  CYS822     -0.0800
    127  N         16.0420   41.6030    3.0180 N.am  823  GLY823     -0.1957
    128  CA        15.2160   42.4660    3.8490 C.3   823  GLY823      0.1869
    129  C         15.9880   42.6310    5.1570 C.2   823  GLY823      0.2309
    130  O         17.0080   41.9730    5.3340 O.2   823  GLY823     -0.2863
@<TRIPOS>BOND
     1    69    68    2
     2    66    67    1
     3    68    67    1
     4    67    70    1
     5    41    42    2
     6    41    40    1
     7    40    39    1
     8    40    43    1
     9    50    51    1
    10    70    71    1
    11    51    52    1
    12    51    54    1
    13    77    78    1
    14    53    52    2
    15    44    43    1
    16    44    45    1
    17    71    72    1
    18    80    79    2
    19    20    21    1
    20    21    24    1
    21    21    22    1
    22    27    26   ar
    23    54    55    1
    24    56    55   ar
    25    78    79    1
    26    78    81    1
    27    24    25    1
    28    45    46    1
    29    72    73    1
    30    81    82    1
    31    23    22    2
    32    55    57   ar
    33    22    29   am
    34    82    83    1
    35    11    12    2
    36    11    10    1
    37    26    25    1
    38    26    28   ar
    39    46    47    2
    40    93    91   ar
    41    73    74    2
    42    29    30    1
    43    10     9    1
    44    10    13    1
    45    31    30    1
    46    31    32    2
    47    47    49    1
    48    47    48    1
    49    90    91    1
    50    90    89    1
    51    91    92   ar
    52    83    84    1
    53    76    74    1
    54    74    75    1
    55     7     6    1
    56    30    33    1
    57    85    86    1
    58    61    60    2
    59    13    14    1
    60    60    59    1
    61     3     2    1
    62     3     4    2
    63     2     1    1
    64     2     5    1
    65    87    86    1
    66    87    88    2
    67    89    86    1
    68    14    15    1
    69    33    34    1
    70    58    59    1
    71     6     5    1
    72     6     8    1
    73    59    62    1
    74   120   118   ar
    75    36    34   ar
    76    36    38   ar
    77    34    35   ar
    78   126   125    1
    79    15    16    1
    80    38    37   ar
    81   118   117    1
    82   118   119   ar
    83    62    63    1
    84    35    37   ar
    85    94    95    1
    86    16    17    2
    87   117   114    1
    88    95    96    1
    89    64    63    1
    90    64    65    1
    91   125   122    1
    92    17    19    1
    93    17    18    1
    94    97    96    2
    95    96    98   am
    96   114   115    1
    97   114   113    1
    98   116   115    2
    99   121   122    1
   100   122   123    1
   101   113   107   am
   102    98    99    1
   103   123   124    2
   104   123   127   am
   105   127   128    1
   106    99   100    1
   107    99   102    1
   108   107   106    1
   109   107   108    2
   110   105   100   am
   111   105   106    1
   112   109   106    1
   113   109   110    1
   114   112   110   am
   115   128   129    1
   116   100   101    2
   117   104   102    1
   118   110   111    2
   119   102   103    1
   120   129   130    2
