@<TRIPOS>MOLECULE
tmp/1vbiA00.pdb
 200 195 0 0 0
SMALL
GASTEIGER

@<TRIPOS>ATOM
      1  N          3.5150   66.8990   20.0520 N.3    41  VAL41      -0.1245
      2  CA         3.4860   65.7890   19.1040 C.3    41  VAL41       0.1561
      3  C          3.4810   64.4890   19.9090 C.2    41  VAL41       0.2260
      4  O          4.4330   63.7070   19.8670 O.2    41  VAL41      -0.2867
      5  CB         4.7170   65.8220   18.1690 C.3    41  VAL41       0.0252
      6  CG1        4.5810   64.7680   17.0750 C.3    41  VAL41       0.0019
      7  CG2        4.8560   67.2050   17.5540 C.3    41  VAL41       0.0019
      8  N          1.9690   61.8030   19.4530 N.3    43  SER43      -0.1202
      9  CA         1.9810   60.5890   18.6490 C.3    43  SER43       0.2020
     10  C          3.3730   59.9740   18.6290 C.2    43  SER43       0.2618
     11  O          3.5310   58.7870   18.3470 O.2    43  SER43      -0.2717
     12  CB         1.5180   60.8870   17.2170 C.3    43  SER43       0.2103
     13  OG         2.3640   61.8310   16.5860 O.3    43  SER43      -0.2182
     14  N          4.3830   60.7850   18.9330 N.am   44  HIS44      -0.1975
     15  CA         5.7560   60.3020   18.9620 C.3    44  HIS44       0.1656
     16  C          6.4330   60.5910   20.2910 C.2    44  HIS44       0.2291
     17  O          7.6570   60.6860   20.3760 O.2    44  HIS44      -0.2864
     18  CB         6.5400   60.9070   17.8020 C.3    44  HIS44       0.0771
     19  CG         6.0760   60.4070   16.4740 C.ar   44  HIS44       0.0820
     20  ND1        4.8290   60.7090   15.9670 N.ar   44  HIS44      -0.2267
     21  CD2        6.6280   59.5200   15.6140 C.ar   44  HIS44       0.1154
     22  CE1        4.6310   60.0220   14.8550 C.ar   44  HIS44       0.1986
     23  NE2        5.7070   59.2920   14.6200 N.ar   44  HIS44      -0.2212
     24  N         12.6840   52.7930   14.7180 N.3   115  HIS115     -0.1226
     25  CA        11.8220   53.9790   14.8410 C.3   115  HIS115      0.1752
     26  C         12.5460   55.0830   15.6230 C.2   115  HIS115      0.2596
     27  O         13.0030   54.8440   16.7410 O.2   115  HIS115     -0.2718
     28  CB        10.5130   53.5730   15.5430 C.3   115  HIS115      0.0759
     29  CG         9.4250   54.6030   15.4750 C.ar  115  HIS115      0.0818
     30  ND1        9.2330   55.5540   16.4540 N.ar  115  HIS115     -0.2268
     31  CD2        8.4520   54.8120   14.5540 C.ar  115  HIS115      0.1154
     32  CE1        8.1880   56.3020   16.1440 C.ar  115  HIS115      0.1986
     33  NE2        7.6960   55.8730   14.9950 N.ar  115  HIS115     -0.2212
     34  N         12.6630   56.2830   15.0450 N.am  116  PHE116     -0.1962
     35  CA        13.3690   57.3550   15.7490 C.3   116  PHE116      0.1771
     36  C         12.5110   58.5110   16.2510 C.2   116  PHE116      0.2620
     37  O         13.0290   59.5410   16.6800 O.2   116  PHE116     -0.2715
     38  CB        14.5650   57.8730   14.9080 C.3   116  PHE116      0.0574
     39  CG        14.2060   58.7890   13.7450 C.ar  116  PHE116     -0.0200
     40  CD1       15.2220   59.2590   12.9090 C.ar  116  PHE116     -0.0042
     41  CD2       12.9030   59.2190   13.5080 C.ar  116  PHE116     -0.0042
     42  CE1       14.9500   60.1440   11.8650 C.ar  116  PHE116     -0.0003
     43  CE2       12.6170   60.1090   12.4620 C.ar  116  PHE116     -0.0003
     44  CZ        13.6410   60.5700   11.6430 C.ar  116  PHE116     -0.0000
     45  N         11.1970   58.3340   16.2040 N.am  117  GLY117     -0.1940
     46  CA        10.3040   59.3730   16.6890 C.3   117  GLY117      0.2014
     47  C         10.0700   60.5480   15.7590 C.2   117  GLY117      0.2639
     48  O          9.9200   60.3870   14.5510 O.2   117  GLY117     -0.2714
     49  N         10.0480   61.7440   16.3390 N.am  118  MET118     -0.1963
     50  CA         9.7980   62.9800   15.6030 C.3   118  MET118      0.1736
     51  C         11.0010   63.4340   14.7780 C.2   118  MET118      0.2616
     52  O         12.0200   63.8470   15.3310 O.2   118  MET118     -0.2715
     53  CB         9.4050   64.0640   16.6080 C.3   118  MET118      0.0427
     54  CG         8.9700   65.3740   16.0090 C.3   118  MET118      0.0599
     55  SD         8.4810   66.4850   17.3410 S.3   118  MET118     -0.1393
     56  CE         8.4590   68.0360   16.4690 C.3   118  MET118      0.0692
     57  N         10.8780   63.3640   13.4540 N.am  119  ALA119     -0.1977
     58  CA        11.9660   63.7530   12.5610 C.3   119  ALA119      0.1597
     59  C         12.4040   65.2010   12.7700 C.2   119  ALA119      0.2287
     60  O         13.5910   65.5190   12.6640 O.2   119  ALA119     -0.2864
     61  CB        11.5500   63.5370   11.1000 C.3   119  ALA119      0.0319
     62  N         13.1090   59.8000    7.1270 N.3   137  THR137     -0.1203
     63  CA        13.1470   58.4270    7.6090 C.3   137  THR137      0.1994
     64  C         12.0380   57.6880    6.8910 C.2   137  THR137      0.2618
     65  O         11.0110   58.2850    6.5720 O.2   137  THR137     -0.2717
     66  CB        12.8750   58.3160    9.1330 C.3   137  THR137      0.1784
     67  OG1       13.0120   56.9460    9.5380 O.3   137  THR137     -0.2211
     68  CG2       11.4550   58.7740    9.4720 C.3   137  THR137      0.0376
     69  N         12.2480   56.4120    6.5840 N.am  138  ASN138     -0.1960
     70  CA        11.1650   55.6580    5.9820 C.3   138  ASN138      0.1819
     71  C         10.4930   54.9230    7.1400 C.2   138  ASN138      0.2621
     72  O         10.9310   55.0370    8.2910 O.2   138  ASN138     -0.2715
     73  CB        11.6520   54.6920    4.8770 C.3   138  ASN138      0.1195
     74  CG        12.7610   53.7530    5.3270 C.2   138  ASN138      0.2630
     75  OD1       13.1300   53.7050    6.4950 O.2   138  ASN138     -0.2716
     76  ND2       13.2900   52.9850    4.3760 N.am  138  ASN138     -0.0877
     77  N          9.4140   54.2100    6.8470 N.am  139  ALA139     -0.1977
     78  CA         8.6680   53.4750    7.8630 C.3   139  ALA139      0.1597
     79  C          7.9380   52.3390    7.1730 C.2   139  ALA139      0.2287
     80  O          7.7380   52.3840    5.9610 O.2   139  ALA139     -0.2864
     81  CB         7.6600   54.3960    8.5380 C.3   139  ALA139      0.0319
     82  N          4.4250   56.1470    6.1650 N.3   155  THR155     -0.1218
     83  CA         4.0030   57.5390    6.2570 C.3   155  THR155      0.1862
     84  C          5.1670   58.4730    5.9280 C.2   155  THR155      0.2287
     85  O          5.0000   59.6870    5.8520 O.2   155  THR155     -0.2866
     86  CB         3.4240   57.8480    7.6420 C.3   155  THR155      0.1770
     87  OG1        4.2850   57.3120    8.6500 O.3   155  THR155     -0.2211
     88  CG2        2.0400   57.2210    7.7780 C.3   155  THR155      0.0375
     89  N          7.9620   60.5870    6.6340 N.3   157  PRO157     -0.2116
     90  CA         8.0320   62.0310    6.8570 C.3   157  PRO157      0.1372
     91  C          9.3170   62.7030    6.3820 C.2   157  PRO157      0.2244
     92  O         10.3700   62.0720    6.2670 O.2   157  PRO157     -0.2868
     93  CB         7.8600   62.1410    8.3620 C.3   157  PRO157      0.0268
     94  CG         8.6550   60.9610    8.8390 C.3   157  PRO157      0.0207
     95  CD         8.2300   59.8510    7.8820 C.3   157  PRO157      0.0892
     96  N         10.8190   75.0070   11.5130 N.3   170  VAL170     -0.1231
     97  CA        10.8530   73.5550   11.5110 C.3   170  VAL170      0.1692
     98  C          9.6720   72.9720   10.7590 C.2   170  VAL170      0.2592
     99  O          8.5420   72.9590   11.2580 O.2   170  VAL170     -0.2718
    100  CB        10.8430   72.9590   12.9350 C.3   170  VAL170      0.0266
    101  CG1       10.9380   71.4350   12.8480 C.3   170  VAL170      0.0020
    102  CG2       12.0020   73.5090   13.7470 C.3   170  VAL170      0.0020
    103  N          9.9410   72.5090    9.5450 N.am  171  ALA171     -0.1966
    104  CA         8.9250   71.8660    8.7320 C.3   171  ALA171      0.1728
    105  C          9.0880   70.3880    9.0850 C.2   171  ALA171      0.2616
    106  O         10.2000   69.8640    9.0750 O.2   171  ALA171     -0.2715
    107  CB         9.2070   72.0960    7.2540 C.3   171  ALA171      0.0334
    108  N          7.9930   69.7250    9.4310 N.am  172  ASP172     -0.1957
    109  CA         8.0440   68.3110    9.7900 C.3   172  ASP172      0.1840
    110  C          6.6950   67.7420    9.3940 C.2   172  ASP172      0.2622
    111  O          5.6830   68.0420   10.0280 O.2   172  ASP172     -0.2715
    112  CB         8.2660   68.1570   11.2970 C.3   172  ASP172      0.1450
    113  CG         8.5540   66.7240   11.6990 C.2   172  ASP172      0.3671
    114  OD1        8.6230   65.8580   10.8040 O.co2 172  ASP172     -0.2456
    115  OD2        8.7180   66.4630   12.9080 O.co2 172  ASP172     -0.2456
    116  N          6.6790   66.9170    8.3530 N.am  173  LEU173     -0.1963
    117  CA         5.4140   66.3810    7.8690 C.3   173  LEU173      0.1728
    118  C          5.4390   64.9730    7.3010 C.2   173  LEU173      0.2616
    119  O          6.3580   64.5930    6.5740 O.2   173  LEU173     -0.2715
    120  CB         4.8600   67.3160    6.7870 C.3   173  LEU173      0.0311
    121  CG         5.8380   67.5590    5.6270 C.3   173  LEU173      0.0022
    122  CD1        5.2140   67.1050    4.3060 C.3   173  LEU173      0.0001
    123  CD2        6.2080   69.0360    5.5580 C.3   173  LEU173      0.0001
    124  N          4.4070   64.2040    7.6340 N.am  174  ALA174     -0.1977
    125  CA         4.2650   62.8630    7.0930 C.3   174  ALA174      0.1597
    126  C          3.7850   63.1480    5.6780 C.2   174  ALA174      0.2287
    127  O          3.1660   64.1870    5.4320 O.2   174  ALA174     -0.2864
    128  CB         3.2080   62.0790    7.8670 C.3   174  ALA174      0.0319
    129  N          1.6600   61.3070    4.0830 N.3   176  SER176     -0.1217
    130  CA         0.3240   60.7310    3.9700 C.3   176  SER176      0.1889
    131  C         -0.6620   61.8130    4.4110 C.2   176  SER176      0.2288
    132  O         -0.2840   62.7460    5.1150 O.2   176  SER176     -0.2866
    133  CB         0.1990   59.5000    4.8780 C.3   176  SER176      0.2089
    134  OG         0.6160   59.7950    6.2030 O.3   176  SER176     -0.2183
    135  N         -4.6370   58.4580   14.1910 N.3   182  LYS182     -0.1245
    136  CA        -5.8230   59.3010   14.1450 C.3   182  LYS182      0.1561
    137  C         -7.0380   58.4880   13.7130 C.2   182  LYS182      0.2260
    138  O         -8.1650   58.7750   14.1170 O.2   182  LYS182     -0.2867
    139  CB        -5.5940   60.4690   13.1850 C.3   182  LYS182      0.0271
    140  CG        -4.4050   61.3380   13.5700 C.3   182  LYS182      0.0035
    141  CD        -4.1870   62.4740   12.5840 C.3   182  LYS182      0.0206
    142  CE        -2.9800   63.3130   12.9810 C.3   182  LYS182      0.1093
    143  NZ        -2.7130   64.4090   12.0060 N.3   182  LYS182     -0.1314
    144  N         -8.6730   82.6510   11.8450 N.3   297  HIS297     -0.1241
    145  CA        -7.2970   82.7530   12.3200 C.3   297  HIS297      0.1621
    146  C         -7.0460   84.1580   12.8530 C.2   297  HIS297      0.2264
    147  O         -7.6270   85.1230   12.3640 O.2   297  HIS297     -0.2867
    148  CB        -6.3220   82.4700   11.1710 C.3   297  HIS297      0.0745
    149  CG        -6.4330   81.0880   10.6090 C.ar  297  HIS297      0.0817
    150  ND1       -5.6970   80.0270   11.0910 N.ar  297  HIS297     -0.2268
    151  CD2       -7.2140   80.5860    9.6240 C.ar  297  HIS297      0.1154
    152  CE1       -6.0200   78.9310   10.4270 C.ar  297  HIS297      0.1986
    153  NE2       -6.9390   79.2430    9.5310 N.ar  297  HIS297     -0.2212
    154  N          1.4190   81.7650   11.4770 N.3   301  PHE301     -0.1227
    155  CA         2.5310   81.1850   12.2170 C.3   301  PHE301      0.1736
    156  C          3.5040   80.4960   11.2690 C.2   301  PHE301      0.2595
    157  O          3.1320   80.0880   10.1710 O.2   301  PHE301     -0.2718
    158  CB         2.0160   80.1570   13.2290 C.3   301  PHE301      0.0547
    159  CG         1.2000   80.7530   14.3380 C.ar  301  PHE301     -0.0202
    160  CD1        1.8190   81.3570   15.4290 C.ar  301  PHE301     -0.0042
    161  CD2       -0.1880   80.7270   14.2840 C.ar  301  PHE301     -0.0042
    162  CE1        1.0630   81.9310   16.4540 C.ar  301  PHE301     -0.0003
    163  CE2       -0.9540   81.2980   15.3010 C.ar  301  PHE301     -0.0003
    164  CZ        -0.3270   81.9010   16.3870 C.ar  301  PHE301     -0.0000
    165  N          4.7570   80.3880   11.6950 N.am  302  LEU302     -0.1966
    166  CA         5.7790   79.7120   10.9070 C.3   302  LEU302      0.1713
    167  C          5.7690   78.2500   11.3340 C.2   302  LEU302      0.2458
    168  O          5.4530   77.9390   12.4820 O.2   302  LEU302     -0.2730
    169  CB         7.1690   80.2810   11.2120 C.3   302  LEU302      0.0310
    170  CG         7.6950   81.4930   10.4440 C.3   302  LEU302      0.0022
    171  CD1        7.8580   81.1160    8.9820 C.3   302  LEU302      0.0001
    172  CD2        6.7540   82.6780   10.6000 C.3   302  LEU302      0.0001
    173  N          6.0950   77.3300   10.4150 N.am  303  PRO303     -0.2716
    174  CA         6.1060   75.9230   10.8210 C.3   303  PRO303      0.1536
    175  C          7.0890   75.7910   11.9860 C.2   303  PRO303      0.2599
    176  O          8.2190   76.2760   11.9050 O.2   303  PRO303     -0.2715
    177  CB         6.6040   75.2140    9.5660 C.3   303  PRO303      0.0310
    178  CG         6.0100   76.0490    8.4710 C.3   303  PRO303      0.0237
    179  CD         6.2830   77.4630    8.9600 C.3   303  PRO303      0.0939
    180  N          6.6550   75.1510   13.0670 N.am  304  GLY304     -0.1955
    181  CA         7.5200   74.9880   14.2220 C.3   304  GLY304      0.1869
    182  C          7.2940   76.0240   15.3130 C.2   304  GLY304      0.2309
    183  O          7.6750   75.8120   16.4640 O.2   304  GLY304     -0.2863
    184  N          4.2990   77.2360   16.6280 N.3   306  LEU306     -0.1231
    185  CA         3.2910   76.8080   17.5920 C.3   306  LEU306      0.1693
    186  C          3.8760   75.7070   18.4730 C.2   306  LEU306      0.2591
    187  O          3.5850   75.6340   19.6690 O.2   306  LEU306     -0.2718
    188  CB         2.0400   76.3050   16.8640 C.3   306  LEU306      0.0284
    189  CG         1.2240   77.4000   16.1670 C.3   306  LEU306      0.0019
    190  CD1        0.1600   76.7760   15.2810 C.3   306  LEU306      0.0001
    191  CD2        0.5930   78.3060   17.2150 C.3   306  LEU306      0.0001
    192  N          4.7060   74.8560   17.8760 N.am  307  GLU307     -0.1979
    193  CA         5.3540   73.7800   18.6170 C.3   307  GLU307      0.1602
    194  C          6.2640   74.3650   19.6980 C.2   307  GLU307      0.2287
    195  O          6.3170   73.8590   20.8220 O.2   307  GLU307     -0.2864
    196  CB         6.1900   72.9000   17.6800 C.3   307  GLU307      0.0415
    197  CG         5.3850   72.0100   16.7420 C.3   307  GLU307      0.1163
    198  CD         4.8250   72.7420   15.5310 C.2   307  GLU307      0.3649
    199  OE1        5.0400   73.9630   15.3940 O.co2 307  GLU307     -0.2457
    200  OE2        4.1640   72.0820   14.7080 O.co2 307  GLU307     -0.2457
@<TRIPOS>BOND
     1   130   129    1
     2   130   131    1
     3   130   133    1
     4   122   121    1
     5    76    74   am
     6   131   132    2
     7    73    74    1
     8    73    70    1
     9   133   134    1
    10    74    75    2
    11   127   126    2
    12   123   121    1
    13   121   120    1
    14   126   125    1
    15    85    84    2
    16    84    83    1
    17    80    79    2
    18    70    69    1
    19    70    71    1
    20    82    83    1
    21    83    86    1
    22    92    91    2
    23    91    90    1
    24    65    64    2
    25   119   118    2
    26    69    64   am
    27    89    90    1
    28    89    95    1
    29   120   117    1
    30    77    71   am
    31    77    78    1
    32    90    93    1
    33    64    63    1
    34   125   124    1
    35   125   128    1
    36    62    63    1
    37    71    72    2
    38    79    78    1
    39   107   104    1
    40   118   124   am
    41   118   117    1
    42    63    66    1
    43    86    88    1
    44    86    87    1
    45    78    81    1
    46   117   116    1
    47    95    94    1
    48   116   110   am
    49    93    94    1
    50   178   179    1
    51   178   177    1
    52   104   105    1
    53   104   103    1
    54   179   173    1
    55   171   170    1
    56   106   105    2
    57   105   108   am
    58    66    68    1
    59    66    67    1
    60   110   109    1
    61   110   111    2
    62   108   109    1
    63   153   151   ar
    64   153   152   ar
    65   103    98   am
    66   177   174    1
    67   151   149   ar
    68   109   112    1
    69   157   156    2
    70   173   174    1
    71   173   167   am
    72   152   150   ar
    73   170   172    1
    74   170   169    1
    75   149   150   ar
    76   149   148    1
    77    98    99    2
    78    98    97    1
    79   114   113   ar
    80   174   175    1
    81   166   169    1
    82   166   167    1
    83   166   165    1
    84    61    58    1
    85   148   145    1
    86   156   165   am
    87   156   155    1
    88   112   113    1
    89   167   168    2
    90   154   155    1
    91    97    96    1
    92    97   100    1
    93    44    42   ar
    94    44    43   ar
    95   113   115   ar
    96   144   145    1
    97    42    40   ar
    98   176   175    2
    99   175   180   am
   100   143   142    1
   101   155   158    1
   102   145   146    1
   103   147   146    2
   104    43    41   ar
   105    58    59    1
   106    58    57    1
   107   141   142    1
   108   141   140    1
   109    60    59    2
   110   101   100    1
   111    40    39   ar
   112   100   102    1
   113   180   181    1
   114   139   140    1
   115   139   136    1
   116   158   159    1
   117    57    51   am
   118    41    39   ar
   119   137   138    2
   120   137   136    1
   121    39    38    1
   122   136   135    1
   123   181   182    1
   124   161   159   ar
   125   161   163   ar
   126   159   160   ar
   127    48    47    2
   128    31    33   ar
   129    31    29   ar
   130    23    22   ar
   131    23    21   ar
   132   200   198   ar
   133    24    25    1
   134    51    52    2
   135    51    50    1
   136    25    28    1
   137    25    26    1
   138    22    20   ar
   139    38    35    1
   140    33    32   ar
   141    34    26   am
   142    34    35    1
   143   190   189    1
   144   163   164   ar
   145   182   183    2
   146   199   198   ar
   147   160   162   ar
   148    29    28    1
   149    29    30   ar
   150   198   197    1
   151    50    49    1
   152    50    53    1
   153    21    19   ar
   154    26    27    2
   155    35    36    1
   156    47    49   am
   157    47    46    1
   158    20    19   ar
   159    54    53    1
   160    54    55    1
   161    32    30   ar
   162   189   188    1
   163   189   191    1
   164    45    36   am
   165    45    46    1
   166    36    37    2
   167   164   162   ar
   168    56    55    1
   169    19    18    1
   170    13    12    1
   171   184   185    1
   172   197   196    1
   173   188   185    1
   174     6     5    1
   175    12     9    1
   176     7     5    1
   177   185   186    1
   178   196   193    1
   179    18    15    1
   180   192   186   am
   181   192   193    1
   182     5     2    1
   183    11    10    2
   184   186   187    2
   185   193   194    1
   186    10     9    1
   187    10    14   am
   188     9     8    1
   189    14    15    1
   190    15    16    1
   191     2     3    1
   192     2     1    1
   193   194   195    2
   194     4     3    2
   195    16    17    2
