@<TRIPOS>MOLECULE
tmp/1vbjA01.pdb
 117 121 0 0 0
SMALL
GASTEIGER

@<TRIPOS>ATOM
      1  N        110.4550   61.8670    8.3740 N.3    28  TRP28      -0.1241
      2  CA       110.9480   61.2150    7.1680 C.3    28  TRP28       0.1605
      3  C        111.0440   62.1840    5.9930 C.2    28  TRP28       0.2264
      4  O        110.0450   62.7580    5.5610 O.2    28  TRP28      -0.2867
      5  CB       110.0750   60.0070    6.8070 C.3    28  TRP28       0.0550
      6  CG       110.5690   59.2430    5.6220 C.ar   28  TRP28       0.0003
      7  CD1      111.8680   59.1120    5.2120 C.ar   28  TRP28       0.0946
      8  CD2      109.7780   58.5090    4.6850 C.ar   28  TRP28       0.0152
      9  NE1      111.9310   58.3420    4.0720 N.ar   28  TRP28      -0.2442
     10  CE2      110.6610   57.9600    3.7280 C.ar   28  TRP28       0.0810
     11  CE3      108.4070   58.2600    4.5610 C.ar   28  TRP28       0.0012
     12  CZ2      110.2160   57.1810    2.6620 C.ar   28  TRP28       0.0191
     13  CZ3      107.9620   57.4790    3.4980 C.ar   28  TRP28       0.0001
     14  CH2      108.8650   56.9500    2.5630 C.ar   28  TRP28       0.0015
     15  N        118.5920   56.3560    9.4030 N.3    56  ILE56      -0.1231
     16  CA       118.4070   56.3290    7.9560 C.3    56  ILE56       0.1692
     17  C        117.8220   57.6170    7.3570 C.2    56  ILE56       0.2592
     18  O        117.9470   57.8510    6.1540 O.2    56  ILE56      -0.2718
     19  CB       117.5220   55.1070    7.5630 C.3    56  ILE56       0.0266
     20  CG1      117.7550   54.7160    6.0980 C.3    56  ILE56       0.0019
     21  CG2      116.0590   55.4260    7.8080 C.3    56  ILE56       0.0020
     22  CD1      116.9690   55.5330    5.1000 C.3    56  ILE56       0.0001
     23  N        117.1870   58.4550    8.1740 N.am   57  TYR57      -0.1976
     24  CA       116.6130   59.6990    7.6510 C.3    57  TYR57       0.1639
     25  C        117.6810   60.7450    7.3670 C.2    57  TYR57       0.2290
     26  O        117.4420   61.7020    6.6270 O.2    57  TYR57      -0.2864
     27  CB       115.5910   60.2930    8.6260 C.3    57  TYR57       0.0560
     28  CG       114.3670   59.4350    8.8560 C.ar   57  TYR57      -0.0198
     29  CD1      114.1340   58.2950    8.0920 C.ar   57  TYR57      -0.0009
     30  CD2      113.4470   59.7560    9.8530 C.ar   57  TYR57      -0.0009
     31  CE1      113.0230   57.4920    8.3160 C.ar   57  TYR57       0.0417
     32  CE2      112.3260   58.9580   10.0890 C.ar   57  TYR57       0.0417
     33  CZ       112.1230   57.8230    9.3170 C.ar   57  TYR57       0.1957
     34  OH       111.0500   56.9920    9.5680 O.3    57  TYR57      -0.2866
     35  N        118.9750   51.3620   11.9950 N.3    84  TRP84      -0.1241
     36  CA       118.8520   50.9580   10.6030 C.3    84  TRP84       0.1605
     37  C        119.3350   49.5190   10.4130 C.2    84  TRP84       0.2264
     38  O        120.2190   49.0480   11.1300 O.2    84  TRP84      -0.2867
     39  CB       119.6390   51.9150    9.7070 C.3    84  TRP84       0.0550
     40  CG       119.4110   51.6550    8.2640 C.ar   84  TRP84       0.0003
     41  CD1      120.3610   51.4310    7.3160 C.ar   84  TRP84       0.0946
     42  CD2      118.1470   51.5040    7.6140 C.ar   84  TRP84       0.0152
     43  NE1      119.7680   51.1380    6.1120 N.ar   84  TRP84      -0.2442
     44  CE2      118.4080   51.1760    6.2690 C.ar   84  TRP84       0.0810
     45  CE3      116.8150   51.6090    8.0390 C.ar   84  TRP84       0.0012
     46  CZ2      117.3880   50.9500    5.3410 C.ar   84  TRP84       0.0191
     47  CZ3      115.8010   51.3840    7.1170 C.ar   84  TRP84       0.0001
     48  CH2      116.0940   51.0580    5.7840 C.ar   84  TRP84       0.0015
     49  N        114.2670   49.3200   13.3010 N.3   115  HIS115     -0.1226
     50  CA       113.5530   49.7820   12.1110 C.3   115  HIS115      0.1752
     51  C        112.8260   48.7220   11.2820 C.2   115  HIS115      0.2596
     52  O        111.6740   48.9250   10.8900 O.2   115  HIS115     -0.2718
     53  CB       114.5270   50.5680   11.2340 C.3   115  HIS115      0.0759
     54  CG       113.9070   51.7330   10.5340 C.ar  115  HIS115      0.0818
     55  ND1      114.6160   52.8750   10.2250 N.ar  115  HIS115     -0.2268
     56  CD2      112.6500   51.9310   10.0700 C.ar  115  HIS115      0.1154
     57  CE1      113.8220   53.7270    9.6020 C.ar  115  HIS115      0.1986
     58  NE2      112.6240   53.1790    9.4950 N.ar  115  HIS115     -0.2212
     59  N        113.4900   47.6060   11.0070 N.am  116  TRP116     -0.1976
     60  CA       112.8950   46.5120   10.2390 C.3   116  TRP116      0.1640
     61  C        113.3300   45.1800   10.8640 C.2   116  TRP116      0.2290
     62  O        114.4140   45.0930   11.4340 O.2   116  TRP116     -0.2864
     63  CB       113.3400   46.5600    8.7630 C.3   116  TRP116      0.0576
     64  CG       112.7480   47.7080    7.9800 C.ar  116  TRP116      0.0006
     65  CD1      113.2560   48.9710    7.8550 C.ar  116  TRP116      0.0946
     66  CD2      111.4830   47.7160    7.3060 C.ar  116  TRP116      0.0152
     67  NE1      112.3800   49.7680    7.1510 N.ar  116  TRP116     -0.2442
     68  CE2      111.2820   49.0220    6.8060 C.ar  116  TRP116      0.0810
     69  CE3      110.4930   46.7460    7.0840 C.ar  116  TRP116      0.0012
     70  CZ2      110.1310   49.3840    6.0990 C.ar  116  TRP116      0.0191
     71  CZ3      109.3530   47.1040    6.3860 C.ar  116  TRP116      0.0001
     72  CH2      109.1800   48.4150    5.9020 C.ar  116  TRP116      0.0015
     73  N        102.6450   54.7570   11.3290 N.3   192  TRP192     -0.1241
     74  CA       103.4520   55.5550   10.4250 C.3   192  TRP192      0.1605
     75  C        102.6750   55.7160    9.1310 C.2   192  TRP192      0.2264
     76  O        101.7790   54.9210    8.8570 O.2   192  TRP192     -0.2867
     77  CB       104.8680   54.9820   10.2140 C.3   192  TRP192      0.0550
     78  CG       105.0880   53.5720    9.6950 C.ar  192  TRP192      0.0003
     79  CD1      105.5470   52.5050   10.4280 C.ar  192  TRP192      0.0946
     80  CD2      105.1490   53.1560    8.3190 C.ar  192  TRP192      0.0152
     81  NE1      105.9110   51.4740    9.5980 N.ar  192  TRP192     -0.2442
     82  CE2      105.6780   51.8440    8.2990 C.ar  192  TRP192      0.0810
     83  CE3      104.8230   53.7710    7.1010 C.ar  192  TRP192      0.0012
     84  CZ2      105.8940   51.1370    7.1070 C.ar  192  TRP192      0.0191
     85  CZ3      105.0440   53.0700    5.9130 C.ar  192  TRP192      0.0001
     86  CH2      105.5760   51.7640    5.9270 C.ar  192  TRP192      0.0015
     87  N        100.5700   58.8080    3.5810 N.3   197  GLN197     -0.1245
     88  CA       101.6440   59.5150    2.8930 C.3   197  GLN197      0.1566
     89  C        101.1100   60.6470    2.0180 C.2   197  GLN197      0.2260
     90  O        101.7010   60.9750    0.9840 O.2   197  GLN197     -0.2867
     91  CB       102.4640   58.5320    2.0480 C.3   197  GLN197      0.0367
     92  CG       103.0780   57.4400    2.8950 C.3   197  GLN197      0.0905
     93  CD       104.2140   56.7050    2.2210 C.2   197  GLN197      0.2608
     94  OE1      104.9570   55.9820    2.8840 O.2   197  GLN197     -0.2717
     95  NE2      104.3500   56.8670    0.9080 N.am  197  GLN197     -0.0878
     96  N        103.9210   51.4670    1.7740 N.3   271  GLY271     -0.1210
     97  CA       105.2890   51.1080    2.0900 C.3   271  GLY271      0.1940
     98  C        105.5770   49.6360    1.8310 C.2   271  GLY271      0.2453
     99  O        104.7120   48.8840    1.3780 O.2   271  GLY271     -0.2732
    100  N        106.7960   49.1850    2.1230 N.am  272  PRO272     -0.2728
    101  CA       107.1460   47.7870    1.8930 C.3   272  PRO272      0.1401
    102  C        106.5930   46.8010    2.9230 C.2   272  PRO272      0.2269
    103  O        106.2510   47.1710    4.0590 O.2   272  PRO272     -0.2865
    104  CB       108.6700   47.8280    1.8570 C.3   272  PRO272      0.0296
    105  CG       108.9800   48.8430    2.8340 C.3   272  PRO272      0.0237
    106  CD       107.9620   49.9440    2.5930 C.3   272  PRO272      0.0939
    107  N        110.8680   42.9750    2.6980 N.3   277  PHE277     -0.1241
    108  CA       111.8330   44.0730    2.6820 C.3   277  PHE277      0.1605
    109  C        113.1700   43.7310    3.3460 C.2   277  PHE277      0.2264
    110  O        113.2700   43.6590    4.5750 O.2   277  PHE277     -0.2867
    111  CB       111.2310   45.3130    3.3460 C.3   277  PHE277      0.0534
    112  CG       112.0010   46.5730    3.0740 C.ar  277  PHE277     -0.0203
    113  CD1      112.1010   47.0740    1.7760 C.ar  277  PHE277     -0.0042
    114  CD2      112.6530   47.2460    4.1000 C.ar  277  PHE277     -0.0042
    115  CE1      112.8450   48.2260    1.5080 C.ar  277  PHE277     -0.0003
    116  CE2      113.3990   48.4000    3.8460 C.ar  277  PHE277     -0.0003
    117  CZ       113.4950   48.8890    2.5430 C.ar  277  PHE277     -0.0000
@<TRIPOS>BOND
     1    95    93   am
     2    90    89    2
     3    99    98    2
     4   115   113   ar
     5   115   117   ar
     6    96    97    1
     7   113   112   ar
     8    98    97    1
     9    98   100   am
    10   104   101    1
    11   104   105    1
    12   101   100    1
    13   101   102    1
    14    89    88    1
    15    91    88    1
    16    91    92    1
    17   100   106    1
    18    93    94    2
    19    93    92    1
    20   117   116   ar
    21    14    12   ar
    22    14    13   ar
    23   106   105    1
    24    12    10   ar
    25   108   107    1
    26   108   109    1
    27   108   111    1
    28    88    87    1
    29   102   103    2
    30   112   111    1
    31   112   114   ar
    32   109   110    2
    33    13    11   ar
    34    10     9   ar
    35    10     8   ar
    36   116   114   ar
    37     9     7   ar
    38    11     8   ar
    39     8     6   ar
    40    22    20    1
    41     7     6   ar
    42    46    48   ar
    43    46    44   ar
    44     4     3    2
    45     6     5    1
    46    48    47   ar
    47    72    70   ar
    48    72    71   ar
    49    85    86   ar
    50    85    83   ar
    51    86    84   ar
    52     3     2    1
    53    20    19    1
    54    70    68   ar
    55    43    44   ar
    56    43    41   ar
    57    18    17    2
    58    44    42   ar
    59    71    69   ar
    60    26    25    2
    61    68    67   ar
    62    68    66   ar
    63     5     2    1
    64    69    66   ar
    65    83    80   ar
    66    84    82   ar
    67    47    45   ar
    68    67    65   ar
    69     2     1    1
    70    66    64   ar
    71    41    40   ar
    72    17    16    1
    73    17    23   am
    74    25    24    1
    75    19    21    1
    76    19    16    1
    77    42    45   ar
    78    42    40   ar
    79    24    23    1
    80    24    27    1
    81    65    64   ar
    82    16    15    1
    83    64    63    1
    84    29    31   ar
    85    29    28   ar
    86    40    39    1
    87    82    80   ar
    88    82    81   ar
    89    31    33   ar
    90    80    78   ar
    91    27    28    1
    92    63    60    1
    93    28    30   ar
    94    76    75    2
    95    75    74    1
    96    33    34    1
    97    33    32   ar
    98    58    57   ar
    99    58    56   ar
   100    81    79   ar
   101    57    55   ar
   102    78    77    1
   103    78    79   ar
   104    39    36    1
   105    30    32   ar
   106    56    54   ar
   107    77    74    1
   108    55    54   ar
   109    60    61    1
   110    60    59    1
   111    37    36    1
   112    37    38    2
   113    74    73    1
   114    54    53    1
   115    36    35    1
   116    61    62    2
   117    52    51    2
   118    59    51   am
   119    53    50    1
   120    51    50    1
   121    50    49    1
