@<TRIPOS>MOLECULE
tmp/1vbkA01.pdb
 85 79 0 0 0
SMALL
GASTEIGER

@<TRIPOS>ATOM
      1  N          9.5220    4.3060   29.3150 N.3   189  GLU189     -0.1245
      2  CA         9.5950    3.7000   30.6390 C.3   189  GLU189      0.1567
      3  C         10.2790    2.3370   30.6280 C.2   189  GLU189      0.2260
      4  O         11.0500    2.0210   31.5310 O.2   189  GLU189     -0.2867
      5  CB         8.1880    3.5740   31.2360 C.3   189  GLU189      0.0388
      6  CG         7.4660    4.9090   31.3830 C.3   189  GLU189      0.1160
      7  CD         6.0820    4.7710   31.9990 C.2   189  GLU189      0.3649
      8  OE1        5.2370    4.0550   31.4180 O.co2 189  GLU189     -0.2457
      9  OE2        5.8380    5.3810   33.0640 O.co2 189  GLU189     -0.2457
     10  N         13.9110    2.6260   30.2850 N.3   192  ALA192     -0.1231
     11  CA        14.4290    3.2020   31.5240 C.3   192  ALA192      0.1694
     12  C         14.6410    2.0910   32.5410 C.2   192  ALA192      0.2591
     13  O         15.6350    2.0910   33.2710 O.2   192  ALA192     -0.2718
     14  CB        13.4600    4.2430   32.0730 C.3   192  ALA192      0.0304
     15  N         13.7030    1.1440   32.5790 N.am  193  LEU193     -0.1980
     16  CA        13.7770    0.0040   33.4900 C.3   193  LEU193      0.1596
     17  C         14.9290   -0.9010   33.0680 C.2   193  LEU193      0.2287
     18  O         15.6110   -1.4930   33.9070 O.2   193  LEU193     -0.2864
     19  CB        12.4640   -0.7870   33.4670 C.3   193  LEU193      0.0297
     20  CG        12.4220   -2.0520   34.3310 C.3   193  LEU193      0.0022
     21  CD1       12.6890   -1.7010   35.7940 C.3   193  LEU193      0.0001
     22  CD2       11.0670   -2.7210   34.1840 C.3   193  LEU193      0.0001
     23  N         17.9680    0.6650   34.4060 N.3   196  PHE196     -0.1241
     24  CA        18.0180    0.4810   35.8500 C.3   196  PHE196      0.1605
     25  C         18.5520   -0.9140   36.1860 C.2   196  PHE196      0.2264
     26  O         19.4240   -1.0630   37.0420 O.2   196  PHE196     -0.2867
     27  CB        16.6160    0.6890   36.4490 C.3   196  PHE196      0.0534
     28  CG        16.5440    0.4670   37.9370 C.ar  196  PHE196     -0.0203
     29  CD1       16.4630   -0.8200   38.4610 C.ar  196  PHE196     -0.0042
     30  CD2       16.5680    1.5460   38.8150 C.ar  196  PHE196     -0.0042
     31  CE1       16.4080   -1.0310   39.8400 C.ar  196  PHE196     -0.0003
     32  CE2       16.5140    1.3480   40.1980 C.ar  196  PHE196     -0.0003
     33  CZ        16.4330    0.0530   40.7100 C.ar  196  PHE196     -0.0000
     34  N         12.4680   11.0230   32.6660 N.3   223  LEU223     -0.1245
     35  CA        12.7350    9.6170   32.9440 C.3   223  LEU223      0.1561
     36  C         14.1490    9.5150   33.5010 C.2   223  LEU223      0.2260
     37  O         14.3990    8.7970   34.4700 O.2   223  LEU223     -0.2867
     38  CB        12.6270    8.7790   31.6680 C.3   223  LEU223      0.0270
     39  CG        11.2300    8.5820   31.0720 C.3   223  LEU223      0.0019
     40  CD1       11.3360    7.7850   29.7790 C.3   223  LEU223      0.0001
     41  CD2       10.3420    7.8540   32.0700 C.3   223  LEU223      0.0001
     42  N         14.6820   10.4800   37.2200 N.3   226  LEU226     -0.1231
     43  CA        14.3480    9.4400   38.1840 C.3   226  LEU226      0.1693
     44  C         15.4960    8.4330   38.2800 C.2   226  LEU226      0.2591
     45  O         15.8630    8.0030   39.3720 O.2   226  LEU226     -0.2718
     46  CB        13.0710    8.7130   37.7630 C.3   226  LEU226      0.0284
     47  CG        11.7740    9.5250   37.7520 C.3   226  LEU226      0.0019
     48  CD1       10.6510    8.6700   37.1820 C.3   226  LEU226      0.0001
     49  CD2       11.4380    9.9860   39.1610 C.3   226  LEU226      0.0001
     50  N         16.0550    8.0620   37.1290 N.am  227  LEU227     -0.1980
     51  CA        17.1650    7.1120   37.0800 C.3   227  LEU227      0.1596
     52  C         18.4330    7.6750   37.7160 C.2   227  LEU227      0.2287
     53  O         19.2310    6.9340   38.2890 O.2   227  LEU227     -0.2864
     54  CB        17.4700    6.7230   35.6270 C.3   227  LEU227      0.0297
     55  CG        16.5000    5.7760   34.9180 C.3   227  LEU227      0.0022
     56  CD1       16.8590    5.6650   33.4400 C.3   227  LEU227      0.0001
     57  CD2       16.5570    4.4110   35.5850 C.3   227  LEU227      0.0001
     58  N         19.8210    6.8340   41.1620 N.3   230  TYR230     -0.1241
     59  CA        20.3430    5.4820   41.3390 C.3   230  TYR230      0.1605
     60  C         21.6230    5.3080   40.5250 C.2   230  TYR230      0.2264
     61  O         22.0750    4.1860   40.3130 O.2   230  TYR230     -0.2867
     62  CB        19.3160    4.4630   40.8370 C.3   230  TYR230      0.0534
     63  CG        18.0930    4.3030   41.7080 C.ar  230  TYR230     -0.0201
     64  CD1       18.1070    3.4460   42.8080 C.ar  230  TYR230     -0.0009
     65  CD2       16.9210    5.0050   41.4360 C.ar  230  TYR230     -0.0009
     66  CE1       16.9810    3.2920   43.6150 C.ar  230  TYR230      0.0417
     67  CE2       15.7920    4.8590   42.2390 C.ar  230  TYR230      0.0417
     68  CZ        15.8310    4.0010   43.3240 C.ar  230  TYR230      0.1957
     69  OH        14.7200    3.8530   44.1220 O.3   230  TYR230     -0.2866
     70  N          9.9940   -0.8750   43.2160 N.3   305  LEU305     -0.1245
     71  CA        10.0320    0.4980   42.7270 C.3   305  LEU305      0.1561
     72  C          8.6380    1.1200   42.6690 C.2   305  LEU305      0.2260
     73  O          8.5010    2.3180   42.4250 O.2   305  LEU305     -0.2867
     74  CB        10.6750    0.5540   41.3360 C.3   305  LEU305      0.0270
     75  CG        12.1930    0.3630   41.2140 C.3   305  LEU305      0.0019
     76  CD1       12.5620    0.2350   39.7450 C.3   305  LEU305      0.0001
     77  CD2       12.9280    1.5410   41.8400 C.3   305  LEU305      0.0001
     78  N          6.1790    0.2940   40.4970 N.3   307  LEU307     -0.1245
     79  CA         5.7960    0.4810   39.1020 C.3   307  LEU307      0.1561
     80  C          4.6280   -0.4150   38.6990 C.2   307  LEU307      0.2260
     81  O          3.6390    0.1240   38.1560 O.2   307  LEU307     -0.2867
     82  CB         6.9960    0.2020   38.1950 C.3   307  LEU307      0.0270
     83  CG         8.2300    1.0720   38.4370 C.3   307  LEU307      0.0019
     84  CD1        9.3730    0.5910   37.5650 C.3   307  LEU307      0.0001
     85  CD2        7.8990    2.5230   38.1370 C.3   307  LEU307      0.0001
@<TRIPOS>BOND
     1     1     2    1
     2    40    39    1
     3    10    11    1
     4     3     2    1
     5     3     4    2
     6     2     5    1
     7    39    38    1
     8    39    41    1
     9     5     6    1
    10     6     7    1
    11     8     7   ar
    12    11    14    1
    13    11    12    1
    14    38    35    1
    15     7     9   ar
    16    12    15   am
    17    12    13    2
    18    15    16    1
    19    34    35    1
    20    35    36    1
    21    17    16    1
    22    17    18    2
    23    56    55    1
    24    19    16    1
    25    19    20    1
    26    36    37    2
    27    22    20    1
    28    20    21    1
    29    23    24    1
    30    55    57    1
    31    55    54    1
    32    54    51    1
    33    24    25    1
    34    24    27    1
    35    25    26    2
    36    27    28    1
    37    51    50    1
    38    51    52    1
    39    50    44   am
    40    48    47    1
    41    42    43    1
    42    84    83    1
    43    52    53    2
    44    47    46    1
    45    47    49    1
    46    46    43    1
    47    28    29   ar
    48    28    30   ar
    49    85    83    1
    50    81    80    2
    51    43    44    1
    52    82    83    1
    53    82    79    1
    54    44    45    2
    55    29    31   ar
    56    80    79    1
    57    30    32   ar
    58    79    78    1
    59    76    75    1
    60    31    33   ar
    61    32    33   ar
    62    61    60    2
    63    60    59    1
    64    62    59    1
    65    62    63    1
    66    58    59    1
    67    75    74    1
    68    75    77    1
    69    74    71    1
    70    65    63   ar
    71    65    67   ar
    72    63    64   ar
    73    67    68   ar
    74    73    72    2
    75    72    71    1
    76    71    70    1
    77    64    66   ar
    78    68    66   ar
    79    68    69    1
