@<TRIPOS>MOLECULE
tmp/1vboB00.pdb
 83 77 0 0 0
SMALL
GASTEIGER

@<TRIPOS>ATOM
      1  N         18.9440   25.1070   26.8600 N.3    13  GLY13      -0.1210
      2  CA        18.9830   24.4030   25.5870 C.3    13  GLY13       0.1956
      3  C         20.3670   24.2660   24.9830 C.2    13  GLY13       0.2612
      4  O         21.3530   24.7600   25.5350 O.2    13  GLY13      -0.2717
      5  N         20.4430   23.5820   23.8460 N.am   14  GLY14      -0.1942
      6  CA        21.7100   23.3960   23.1570 C.3    14  GLY14       0.2014
      7  C         22.7460   22.5800   23.9010 C.2    14  GLY14       0.2638
      8  O         22.4290   21.8970   24.8740 O.2    14  GLY14      -0.2714
      9  N         23.9880   22.6350   23.4290 N.am   15  ASN15      -0.1972
     10  CA        25.0720   21.9010   24.0710 C.3    15  ASN15       0.1688
     11  C         26.0350   22.8530   24.7580 C.2    15  ASN15       0.2292
     12  O         26.3840   23.9060   24.2130 O.2    15  ASN15      -0.2864
     13  CB        25.8240   21.0600   23.0440 C.3    15  ASN15       0.1181
     14  CG        24.9470   19.9980   22.4220 C.2    15  ASN15       0.2629
     15  OD1       24.6760   20.0330   21.2190 O.2    15  ASN15      -0.2716
     16  ND2       24.4820   19.0490   23.2430 N.am   15  ASN15      -0.0877
     17  N         10.3020   31.5000   16.2180 N.3    87  ALA87      -0.1231
     18  CA        10.8400   30.8080   15.0310 C.3    87  ALA87       0.1694
     19  C         11.4970   29.4420   15.2920 C.2    87  ALA87       0.2592
     20  O         11.7610   28.6780   14.3460 O.2    87  ALA87      -0.2718
     21  CB        11.8400   31.7130   14.3110 C.3    87  ALA87       0.0304
     22  N         11.7770   29.1350   16.5550 N.am   88  LEU88      -0.1966
     23  CA        12.3930   27.8550   16.8940 C.3    88  LEU88       0.1727
     24  C         11.2780   26.8770   17.2520 C.2    88  LEU88       0.2613
     25  O         10.1220   27.2760   17.4190 O.2    88  LEU88      -0.2715
     26  CB        13.3310   28.0060   18.1020 C.3    88  LEU88       0.0311
     27  CG        14.5340   28.9570   18.0450 C.3    88  LEU88       0.0022
     28  CD1       15.2550   28.9650   19.4020 C.3    88  LEU88       0.0001
     29  CD2       15.4780   28.5180   16.9250 C.3    88  LEU88       0.0001
     30  N         11.6280   25.5980   17.3610 N.am   89  ALA89      -0.2016
     31  CA        10.6620   24.5630   17.7230 C.3    89  ALA89       0.1426
     32  C         10.5330   24.5240   19.5150 C.3    89  ALA89       0.2456
     33  O          9.7060   23.6260   19.7150 O.3    89  ALA89      -0.2017
     34  CB        11.0380   23.2240   17.0710 C.3    89  ALA89       0.0277
     35  N         11.6580   24.5690   20.2400 N.3    90  THR90      -0.1839
     36  CA        12.0020   25.3660   20.7860 C.3    90  THR90       0.1385
     37  C         11.6400   25.9250   21.8890 C.3    90  THR90       0.2020
     38  O         11.7280   27.1050   21.5310 O.3    90  THR90      -0.2188
     39  CB        13.5050   24.3920   20.5690 C.3    90  THR90       0.1706
     40  OG1       13.3470   23.0360   20.1200 O.3    90  THR90      -0.2216
     41  CG2       14.0010   24.3860   22.0190 C.3    90  THR90       0.0371
     42  N         12.6560   27.0240   25.0830 N.3    92  THR92      -0.1218
     43  CA        13.6220   27.5420   26.0620 C.3    92  THR92       0.1862
     44  C         14.2200   28.8800   25.6350 C.2    92  THR92       0.2287
     45  O         14.3840   29.1450   24.4400 O.2    92  THR92      -0.2866
     46  CB        14.7530   26.5550   26.2650 C.3    92  THR92       0.1770
     47  OG1       15.5440   26.4970   25.0680 O.3    92  THR92      -0.2211
     48  CG2       14.1900   25.1750   26.5480 C.3    92  THR92       0.0375
     49  N         16.7570   31.9790   24.8060 N.3    94  VAL94      -0.1245
     50  CA        17.9550   32.0250   23.9810 C.3    94  VAL94       0.1561
     51  C         18.5080   33.4520   24.0120 C.2    94  VAL94       0.2260
     52  O         17.7860   34.3850   24.3790 O.2    94  VAL94      -0.2867
     53  CB        17.5820   31.6000   22.5210 C.3    94  VAL94       0.0252
     54  CG1       18.5630   32.1680   21.5180 C.3    94  VAL94       0.0019
     55  CG2       17.5510   30.0700   22.4290 C.3    94  VAL94       0.0019
     56  N         23.0870   25.5220   20.2610 N.3   136  GLY136     -0.1210
     57  CA        22.2910   24.4640   19.6500 C.3   136  GLY136      0.1956
     58  C         22.2880   24.9130   18.2050 C.2   136  GLY136      0.2612
     59  O         23.3030   24.7920   17.5140 O.2   136  GLY136     -0.2717
     60  N         21.1630   25.4520   17.7480 N.am  137  ASP137     -0.1959
     61  CA        21.0860   25.9780   16.3870 C.3   137  ASP137      0.1840
     62  C         21.5200   27.4360   16.5000 C.2   137  ASP137      0.2621
     63  O         22.0240   28.0280   15.5410 O.2   137  ASP137     -0.2715
     64  CB        19.6520   25.8990   15.8240 C.3   137  ASP137      0.1450
     65  CG        19.2820   24.5010   15.3210 C.2   137  ASP137      0.3671
     66  OD1       20.1620   23.5980   15.2880 O.co2 137  ASP137     -0.2456
     67  OD2       18.1000   24.3070   14.9500 O.co2 137  ASP137     -0.2456
     68  N         21.3080   28.0090   17.6820 N.am  138  LEU138     -0.1977
     69  CA        21.6920   29.4010   17.9740 C.3   138  LEU138      0.1596
     70  C         22.4630   29.4370   19.3010 C.2   138  LEU138      0.2287
     71  O         22.7910   28.3890   19.8860 O.2   138  LEU138     -0.2864
     72  CB        20.5190   30.3420   17.6050 C.3   138  LEU138      0.0297
     73  CG        19.0390   30.6720   17.7990 C.3   138  LEU138      0.0022
     74  CD1       18.6880   32.1010   17.3800 C.3   138  LEU138      0.0001
     75  CD2       18.1130   29.7620   16.9910 C.3   138  LEU138      0.0001
     76  N         22.3210   29.6870   22.8940 N.3   140  ASP140     -0.1239
     77  CA        21.3400   29.5490   23.9660 C.3   140  ASP140      0.1674
     78  C         21.7080   30.3660   25.2080 C.2   140  ASP140      0.2266
     79  O         20.8530   31.0300   25.8070 O.2   140  ASP140     -0.2867
     80  CB        21.1630   28.0640   24.3640 C.3   140  ASP140      0.1410
     81  CG        20.3880   27.2500   23.3180 C.2   140  ASP140      0.3668
     82  OD1       21.0000   26.8270   22.3050 O.co2 140  ASP140     -0.2456
     83  OD2       19.1620   27.0390   23.5130 O.co2 140  ASP140     -0.2456
@<TRIPOS>BOND
     1    21    18    1
     2    20    19    2
     3    67    65   ar
     4    18    19    1
     5    18    17    1
     6    66    65   ar
     7    19    22   am
     8    65    64    1
     9    63    62    2
    10    64    61    1
    11    61    62    1
    12    61    60    1
    13    62    68   am
    14    22    23    1
    15    23    24    1
    16    23    26    1
    17    29    27    1
    18    75    73    1
    19    34    31    1
    20    24    30   am
    21    24    25    2
    22    30    31    1
    23    74    73    1
    24    59    58    2
    25    72    73    1
    26    72    69    1
    27    68    69    1
    28    31    32    1
    29    60    58   am
    30    69    70    1
    31    27    26    1
    32    27    28    1
    33    58    57    1
    34    70    71    2
    35    32    33    1
    36    32    35    1
    37    57    56    1
    38    40    39    1
    39    35    36    1
    40    39    36    1
    41    39    41    1
    42    36    37    1
    43    15    14    2
    44    54    53    1
    45    38    37    1
    46    82    81   ar
    47    14    13    1
    48    14    16   am
    49    55    53    1
    50    53    50    1
    51    76    77    1
    52    13    10    1
    53     6     5    1
    54     6     7    1
    55    81    83   ar
    56    81    80    1
    57     9     7   am
    58     9    10    1
    59     5     3   am
    60     7     8    2
    61    77    80    1
    62    77    78    1
    63    50    51    1
    64    50    49    1
    65    51    52    2
    66    10    11    1
    67    12    11    2
    68    45    44    2
    69     3     4    2
    70     3     2    1
    71    47    46    1
    72    42    43    1
    73    78    79    2
    74     2     1    1
    75    44    43    1
    76    43    46    1
    77    46    48    1
