@<TRIPOS>MOLECULE
tmp/1vbpA00.pdb
 82 78 0 0 0
SMALL
GASTEIGER

@<TRIPOS>ATOM
      1  N        113.1600  110.8660  136.0200 N.3    13  GLY13      -0.1210
      2  CA       112.7610  109.7570  135.1680 C.3    13  GLY13       0.1956
      3  C        113.7780  108.6360  135.0370 C.2    13  GLY13       0.2612
      4  O        114.6390  108.4580  135.9020 O.2    13  GLY13      -0.2717
      5  N        113.6720  107.8810  133.9440 N.am   14  GLY14      -0.1956
      6  CA       114.5730  106.7650  133.7130 C.3    14  GLY14       0.1869
      7  C        114.2540  105.6110  134.6510 C.2    14  GLY14       0.2309
      8  O        113.1240  105.4960  135.1400 O.2    14  GLY14      -0.2863
      9  N        116.7530  115.9890  121.7130 N.3    87  ALA87      -0.1231
     10  CA       116.5670  114.6590  121.1310 C.3    87  ALA87       0.1694
     11  C        115.6790  113.6580  121.8530 C.2    87  ALA87       0.2592
     12  O        115.5500  112.5170  121.4080 O.2    87  ALA87      -0.2718
     13  CB       117.9320  114.0230  120.8860 C.3    87  ALA87       0.0304
     14  N        115.0640  114.0540  122.9550 N.am   88  LEU88      -0.1966
     15  CA       114.2180  113.1140  123.6720 C.3    88  LEU88       0.1728
     16  C        112.7540  113.4240  123.5830 C.2    88  LEU88       0.2616
     17  O        112.3600  114.5780  123.4110 O.2    88  LEU88      -0.2715
     18  CB       114.6150  113.0500  125.1390 C.3    88  LEU88       0.0311
     19  CG       115.9390  112.3150  125.3080 C.3    88  LEU88       0.0022
     20  CD1      116.3230  112.1750  126.7790 C.3    88  LEU88       0.0001
     21  CD2      115.7820  110.9580  124.6650 C.3    88  LEU88       0.0001
     22  N        111.9460  112.3790  123.6950 N.am   89  ALA89      -0.1963
     23  CA       110.5100  112.5590  123.6580 C.3    89  ALA89       0.1728
     24  C        110.1440  113.2030  124.9960 C.2    89  ALA89       0.2617
     25  O        109.4890  114.2520  125.0460 O.2    89  ALA89      -0.2715
     26  CB       109.8160  111.2160  123.5000 C.3    89  ALA89       0.0334
     27  N        110.6070  112.5850  126.0780 N.am   90  THR90      -0.1937
     28  CA       110.3320  113.0750  127.4190 C.3    90  THR90       0.2013
     29  C        110.9370  114.4430  127.7180 C.2    90  THR90       0.2484
     30  O        112.0720  114.7530  127.3250 O.2    90  THR90      -0.2729
     31  CB       110.8380  112.0880  128.4850 C.3    90  THR90       0.1807
     32  OG1      112.2570  111.9070  128.3500 O.3    90  THR90      -0.2208
     33  CG2      110.1340  110.7550  128.3390 C.3    90  THR90       0.0379
     34  N        110.1730  115.2850  128.4240 N.am   91  PRO91      -0.2715
     35  CA       110.6350  116.6190  128.7800 C.3    91  PRO91       0.1536
     36  C        111.3830  116.6560  130.1140 C.2    91  PRO91       0.2599
     37  O        111.5940  117.7360  130.6620 O.2    91  PRO91      -0.2715
     38  CB       109.3440  117.4150  128.8280 C.3    91  PRO91       0.0310
     39  CG       108.4120  116.4310  129.4320 C.3    91  PRO91       0.0237
     40  CD       108.7260  115.1580  128.6670 C.3    91  PRO91       0.0939
     41  N        111.7760  115.4990  130.6500 N.am   92  THR92      -0.1951
     42  CA       112.5170  115.4690  131.9210 C.3    92  THR92       0.1897
     43  C        113.9680  115.8540  131.6260 C.2    92  THR92       0.2313
     44  O        114.3500  115.9780  130.4570 O.2    92  THR92      -0.2863
     45  CB       112.5270  114.0680  132.5480 C.3    92  THR92       0.1794
     46  OG1      113.4740  113.2440  131.8550 O.3    92  THR92      -0.2208
     47  CG2      111.1460  113.4350  132.4540 C.3    92  THR92       0.0378
     48  N        118.3430  115.3380  132.1350 N.3    94  VAL94      -0.1245
     49  CA       119.2850  114.2200  132.1350 C.3    94  VAL94       0.1561
     50  C        120.7180  114.6950  132.2710 C.2    94  VAL94       0.2260
     51  O        121.0000  115.9000  132.2540 O.2    94  VAL94      -0.2867
     52  CB       119.2180  113.4090  130.8390 C.3    94  VAL94       0.0252
     53  CG1      117.8210  112.8240  130.6440 C.3    94  VAL94       0.0019
     54  CG2      119.6180  114.2940  129.6750 C.3    94  VAL94       0.0019
     55  N        117.4360  105.7320  131.6340 N.3   136  GLY136     -0.1210
     56  CA       116.2970  105.3360  130.8190 C.3   136  GLY136      0.1956
     57  C        116.8150  104.9040  129.4610 C.2   136  GLY136      0.2612
     58  O        117.1070  103.7280  129.2280 O.2   136  GLY136     -0.2717
     59  N        116.9090  105.8650  128.5520 N.am  137  ASP137     -0.1959
     60  CA       117.4480  105.6040  127.2350 C.3   137  ASP137      0.1840
     61  C        118.8840  106.0900  127.3450 C.2   137  ASP137      0.2621
     62  O        119.7410  105.6800  126.5660 O.2   137  ASP137     -0.2715
     63  CB       116.6840  106.3720  126.1530 C.3   137  ASP137      0.1450
     64  CG       115.5780  105.5380  125.5050 C.2   137  ASP137      0.3671
     65  OD1      114.7600  104.9590  126.2490 O.co2 137  ASP137     -0.2456
     66  OD2      115.5190  105.4700  124.2550 O.co2 137  ASP137     -0.2456
     67  N        119.1340  106.9670  128.3190 N.am  138  LEU138     -0.1977
     68  CA       120.4780  107.4760  128.6020 C.3   138  LEU138      0.1596
     69  C        120.5680  107.8650  130.0590 C.2   138  LEU138      0.2287
     70  O        119.5650  107.8920  130.7710 O.2   138  LEU138     -0.2864
     71  CB       120.8320  108.6560  127.7160 C.3   138  LEU138      0.0297
     72  CG       119.6720  109.5600  127.3400 C.3   138  LEU138      0.0022
     73  CD1      119.2900  110.4020  128.5310 C.3   138  LEU138      0.0001
     74  CD2      120.0820  110.4400  126.1600 C.3   138  LEU138      0.0001
     75  N        119.9720  109.2640  133.0730 N.3   140  ASP140     -0.1239
     76  CA       119.0110  110.2500  133.5380 C.3   140  ASP140      0.1674
     77  C        119.5800  111.0590  134.6970 C.2   140  ASP140      0.2266
     78  O        119.5550  112.2900  134.6770 O.2   140  ASP140     -0.2867
     79  CB       117.7330  109.5720  133.9940 C.3   140  ASP140      0.1410
     80  CG       116.7050  109.5030  132.9060 C.2   140  ASP140      0.3668
     81  OD1      116.8760  108.6860  131.9730 O.co2 140  ASP140     -0.2456
     82  OD2      115.7310  110.2840  132.9910 O.co2 140  ASP140     -0.2456
@<TRIPOS>BOND
     1    13    10    1
     2    10     9    1
     3    10    11    1
     4    12    11    2
     5    11    14   am
     6    14    15    1
     7    17    16    2
     8    26    23    1
     9    16    15    1
    10    16    22   am
    11    23    22    1
    12    23    24    1
    13    15    18    1
    14    66    64   ar
    15    21    19    1
    16    24    25    2
    17    24    27   am
    18    18    19    1
    19    19    20    1
    20    64    63    1
    21    64    65   ar
    22    27    28    1
    23    63    60    1
    24    74    72    1
    25    62    61    2
    26    60    61    1
    27    60    59    1
    28    30    29    2
    29    72    71    1
    30    72    73    1
    31    61    67   am
    32    28    29    1
    33    28    31    1
    34    71    68    1
    35    29    34   am
    36    67    68    1
    37    33    31    1
    38    32    31    1
    39    34    40    1
    40    34    35    1
    41    59    57   am
    42    68    69    1
    43    40    39    1
    44    35    38    1
    45    35    36    1
    46    38    39    1
    47    58    57    2
    48    57    56    1
    49    54    52    1
    50    69    70    2
    51    36    41   am
    52    36    37    2
    53    44    43    2
    54    53    52    1
    55    41    42    1
    56    56    55    1
    57    52    49    1
    58    43    42    1
    59    46    45    1
    60    42    45    1
    61    81    80   ar
    62    48    49    1
    63    49    50    1
    64    51    50    2
    65    47    45    1
    66    80    82   ar
    67    80    79    1
    68    75    76    1
    69    76    79    1
    70    76    77    1
    71     6     5    1
    72     6     7    1
    73     5     3   am
    74     7     8    2
    75    78    77    2
    76     3     2    1
    77     3     4    2
    78     2     1    1
