@<TRIPOS>MOLECULE
tmp/1vbrB00.pdb
 144 141 0 0 0
SMALL
GASTEIGER

@<TRIPOS>ATOM
      1  N         25.1100   23.1100   27.2360 N.3    45  GLU45      -0.1231
      2  CA        25.4560   22.5370   28.5340 C.3    45  GLU45       0.1699
      3  C         24.7820   21.1940   28.8680 C.2    45  GLU45       0.2592
      4  O         25.4260   20.3130   29.4400 O.2    45  GLU45      -0.2718
      5  CB        25.1700   23.5650   29.6340 C.3    45  GLU45       0.0402
      6  CG        25.5980   23.1440   31.0300 C.3    45  GLU45       0.1161
      7  CD        25.4050   24.2510   32.0570 C.2    45  GLU45       0.3649
      8  OE1       24.4830   25.0700   31.8830 O.co2  45  GLU45      -0.2457
      9  OE2       26.1650   24.2980   33.0490 O.co2  45  GLU45      -0.2457
     10  N         23.5090   21.0280   28.5000 N.am   46  ASN46      -0.1974
     11  CA        22.7810   19.7840   28.8010 C.3    46  ASN46       0.1688
     12  C         21.8030   19.2910   27.7330 C.2    46  ASN46       0.2292
     13  O         21.5200   18.0920   27.6500 O.2    46  ASN46      -0.2864
     14  CB        21.9460   19.9300   30.0840 C.3    46  ASN46       0.1181
     15  CG        22.7750   20.2420   31.3130 C.2    46  ASN46       0.2629
     16  OD1       22.7370   21.3600   31.8340 O.2    46  ASN46      -0.2716
     17  ND2       23.5150   19.2580   31.7910 N.am   46  ASN46      -0.0877
     18  N         22.2940   16.0730   25.7530 N.3    49  LYS49      -0.1245
     19  CA        22.5160   14.8560   26.5420 C.3    49  LYS49       0.1561
     20  C         21.3230   13.9090   26.3980 C.2    49  LYS49       0.2260
     21  O         20.2090   14.3360   26.0830 O.2    49  LYS49      -0.2867
     22  CB        22.7300   15.1900   28.0250 C.3    49  LYS49       0.0271
     23  CG        24.0200   15.9470   28.3120 C.3    49  LYS49       0.0035
     24  CD        24.1600   16.3030   29.7890 C.3    49  LYS49       0.0206
     25  CE        25.4250   17.1220   30.0300 C.3    49  LYS49       0.1093
     26  NZ        25.5140   17.6530   31.4160 N.3    49  LYS49      -0.1314
     27  N         27.7420   17.7930   22.7690 N.3    82  HIS82      -0.1241
     28  CA        28.0710   17.2090   24.0700 C.3    82  HIS82       0.1621
     29  C         26.8320   16.5640   24.6980 C.2    82  HIS82       0.2264
     30  O         25.8310   17.2480   24.8840 O.2    82  HIS82      -0.2867
     31  CB        28.5790   18.3520   24.9610 C.3    82  HIS82       0.0745
     32  CG        28.8630   17.9610   26.3760 C.ar   82  HIS82       0.0817
     33  ND1       30.0480   17.3730   26.7630 N.ar   82  HIS82      -0.2268
     34  CD2       28.1240   18.0970   27.5030 C.ar   82  HIS82       0.1154
     35  CE1       30.0270   17.1640   28.0670 C.ar   82  HIS82       0.1986
     36  NE2       28.8700   17.5940   28.5400 N.ar   82  HIS82      -0.2212
     37  N         27.9410    8.8240   28.0220 N.3    86  TRP86      -0.1241
     38  CA        28.3130    9.2680   29.3610 C.3    86  TRP86       0.1605
     39  C         27.5340    8.4300   30.3780 C.2    86  TRP86       0.2264
     40  O         26.5070    7.8310   30.0380 O.2    86  TRP86      -0.2867
     41  CB        27.9870   10.7660   29.4990 C.3    86  TRP86       0.0550
     42  CG        28.5610   11.4540   30.7170 C.ar   86  TRP86       0.0003
     43  CD1       29.7620   11.2050   31.3180 C.ar   86  TRP86       0.0946
     44  CD2       27.9670   12.5400   31.4460 C.ar   86  TRP86       0.0152
     45  NE1       29.9520   12.0650   32.3760 N.ar   86  TRP86      -0.2442
     46  CE2       28.8660   12.8940   32.4770 C.ar   86  TRP86       0.0810
     47  CE3       26.7610   13.2470   31.3250 C.ar   86  TRP86       0.0012
     48  CZ2       28.5980   13.9270   33.3860 C.ar   86  TRP86       0.0191
     49  CZ3       26.4940   14.2750   32.2290 C.ar   86  TRP86       0.0001
     50  CH2       27.4110   14.6040   33.2470 C.ar   86  TRP86       0.0015
     51  N         23.1300   11.4590   33.8200 N.3    89  GLN89      -0.1245
     52  CA        22.0040   12.0190   33.0900 C.3    89  GLN89       0.1566
     53  C         21.4730   11.0790   32.0150 C.2    89  GLN89       0.2260
     54  O         21.1980   11.4840   30.8810 O.2    89  GLN89      -0.2867
     55  CB        22.3910   13.3780   32.4950 C.3    89  GLN89       0.0367
     56  CG        22.2890   14.5100   33.5160 C.3    89  GLN89       0.0905
     57  CD        22.8730   15.8210   33.0300 C.2    89  GLN89       0.2608
     58  OE1       24.0900   15.9980   32.9970 O.2    89  GLN89      -0.2717
     59  NE2       22.0050   16.7500   32.6450 N.am   89  GLN89      -0.0878
     60  N         32.5860   10.5740   27.0530 N.3   130  ASN130     -0.1225
     61  CA        32.8950   11.4710   28.1510 C.3   130  ASN130      0.1785
     62  C         33.1810   10.7080   29.4420 C.2   130  ASN130      0.2597
     63  O         32.4060    9.8430   29.8400 O.2   130  ASN130     -0.2718
     64  CB        31.7010   12.4170   28.3520 C.3   130  ASN130      0.1169
     65  CG        32.0320   13.6220   29.2050 C.2   130  ASN130      0.2627
     66  OD1       33.0670   14.2600   29.0230 O.2   130  ASN130     -0.2716
     67  ND2       31.1360   13.9570   30.1330 N.am  130  ASN130     -0.0877
     68  N         34.3130   11.0180   30.0680 N.am  131  GLU131     -0.1979
     69  CA        34.6950   10.4270   31.3520 C.3   131  GLU131      0.1602
     70  C         34.5360    8.9140   31.4620 C.2   131  GLU131      0.2287
     71  O         33.7870    8.4250   32.3080 O.2   131  GLU131     -0.2864
     72  CB        33.8780   11.1040   32.4580 C.3   131  GLU131      0.0415
     73  CG        33.8100   12.6120   32.2840 C.3   131  GLU131      0.1163
     74  CD        32.9340   13.2990   33.3100 C.2   131  GLU131      0.3649
     75  OE1       32.1360   12.6180   33.9870 O.co2 131  GLU131     -0.2457
     76  OE2       33.0370   14.5330   33.4270 O.co2 131  GLU131     -0.2457
     77  N         37.9940   14.9170   32.7880 N.3   174  TYR174     -0.1241
     78  CA        38.4720   15.8520   33.7940 C.3   174  TYR174      0.1605
     79  C         39.6660   15.2810   34.5570 C.2   174  TYR174      0.2264
     80  O         39.8960   14.0650   34.5680 O.2   174  TYR174     -0.2867
     81  CB        37.3370   16.1830   34.7710 C.3   174  TYR174      0.0534
     82  CG        36.8630   15.0090   35.6050 C.ar  174  TYR174     -0.0201
     83  CD1       37.5000   14.6720   36.8030 C.ar  174  TYR174     -0.0009
     84  CD2       35.7720   14.2420   35.2020 C.ar  174  TYR174     -0.0009
     85  CE1       37.0520   13.5980   37.5770 C.ar  174  TYR174      0.0417
     86  CE2       35.3180   13.1680   35.9660 C.ar  174  TYR174      0.0417
     87  CZ        35.9590   12.8530   37.1500 C.ar  174  TYR174      0.1957
     88  OH        35.4970   11.8010   37.9040 O.3   174  TYR174     -0.2866
     89  N         38.7030   19.0910   30.2820 N.3   206  GLN206     -0.1245
     90  CA        37.6540   19.9020   30.8900 C.3   206  GLN206      0.1566
     91  C         38.1420   21.1660   31.5900 C.2   206  GLN206      0.2260
     92  O         37.5120   22.2240   31.4860 O.2   206  GLN206     -0.2867
     93  CB        36.8190   19.0370   31.8390 C.3   206  GLN206      0.0367
     94  CG        35.9140   18.0670   31.0800 C.3   206  GLN206      0.0905
     95  CD        35.0490   17.2110   31.9810 C.2   206  GLN206      0.2608
     96  OE1       34.8010   17.5560   33.1360 O.2   206  GLN206     -0.2717
     97  NE2       34.5670   16.0930   31.4480 N.am  206  GLN206     -0.0878
     98  N         38.3600   21.8610   34.8980 N.3   208  HIS208     -0.1241
     99  CA        37.5700   22.3050   36.0460 C.3   208  HIS208      0.1621
    100  C         38.6060   22.3830   37.1670 C.2   208  HIS208      0.2264
    101  O         38.8400   21.4020   37.8740 O.2   208  HIS208     -0.2867
    102  CB        36.4840   21.2790   36.4000 C.3   208  HIS208      0.0745
    103  CG        35.3390   21.2520   35.4340 C.ar  208  HIS208      0.0817
    104  ND1       34.5280   22.3440   35.2100 N.ar  208  HIS208     -0.2268
    105  CD2       34.8740   20.2680   34.6290 C.ar  208  HIS208      0.1154
    106  CE1       33.6140   22.0350   34.3060 C.ar  208  HIS208      0.1986
    107  NE2       33.8010   20.7810   33.9380 N.ar  208  HIS208     -0.2212
    108  N         35.6400   22.7330   29.2780 N.3   237  GLU237     -0.1245
    109  CA        34.6960   23.1850   30.2970 C.3   237  GLU237      0.1567
    110  C         35.3980   23.9660   31.3940 C.2   237  GLU237      0.2260
    111  O         35.1520   23.7670   32.5800 O.2   237  GLU237     -0.2867
    112  CB        33.9930   21.9620   30.9070 C.3   237  GLU237      0.0388
    113  CG        33.4940   20.9420   29.8720 C.3   237  GLU237      0.1160
    114  CD        32.8330   19.7200   30.4970 C.2   237  GLU237      0.3649
    115  OE1       32.6090   19.7200   31.7250 O.co2 237  GLU237     -0.2457
    116  OE2       32.5260   18.7590   29.7590 O.co2 237  GLU237     -0.2457
    117  N         32.9490   26.6840   31.0940 N.3   278  TRP278     -0.1241
    118  CA        31.6730   26.0090   31.2920 C.3   278  TRP278      0.1605
    119  C         30.6670   27.0700   31.7400 C.2   278  TRP278      0.2264
    120  O         30.1790   27.0570   32.8720 O.2   278  TRP278     -0.2867
    121  CB        31.8150   24.9060   32.3430 C.3   278  TRP278      0.0550
    122  CG        30.8090   23.8050   32.1780 C.ar  278  TRP278      0.0003
    123  CD1       29.9790   23.3030   33.1380 C.ar  278  TRP278      0.0946
    124  CD2       30.5180   23.0750   30.9730 C.ar  278  TRP278      0.0152
    125  NE1       29.1880   22.3100   32.6080 N.ar  278  TRP278     -0.2442
    126  CE2       29.4970   22.1490   31.2820 C.ar  278  TRP278      0.0810
    127  CE3       31.0200   23.1150   29.6630 C.ar  278  TRP278      0.0012
    128  CZ2       28.9650   21.2690   30.3300 C.ar  278  TRP278      0.0191
    129  CZ3       30.4860   22.2360   28.7080 C.ar  278  TRP278      0.0001
    130  CH2       29.4720   21.3280   29.0520 C.ar  278  TRP278      0.0015
    131  N         27.5540   25.7660   37.2740 N.3   286  TRP286     -0.1241
    132  CA        27.2910   24.5190   37.9900 C.3   286  TRP286      0.1605
    133  C         28.1830   24.3960   39.2230 C.2   286  TRP286      0.2264
    134  O         27.9180   23.5860   40.1130 O.2   286  TRP286     -0.2867
    135  CB        27.5500   23.3140   37.0750 C.3   286  TRP286      0.0550
    136  CG        29.0160   23.0020   36.9160 C.ar  286  TRP286      0.0003
    137  CD1       30.0000   23.8660   36.5130 C.ar  286  TRP286      0.0946
    138  CD2       29.6730   21.7630   37.2230 C.ar  286  TRP286      0.0152
    139  NE1       31.2270   23.2430   36.5590 N.ar  286  TRP286     -0.2442
    140  CE2       31.0560   21.9530   36.9910 C.ar  286  TRP286      0.0810
    141  CE3       29.2290   20.5100   37.6740 C.ar  286  TRP286      0.0012
    142  CZ2       32.0010   20.9380   37.1970 C.ar  286  TRP286      0.0191
    143  CZ3       30.1730   19.4980   37.8790 C.ar  286  TRP286      0.0001
    144  CH2       31.5420   19.7220   37.6390 C.ar  286  TRP286      0.0015
@<TRIPOS>BOND
     1    27    28    1
     2    28    29    1
     3    28    31    1
     4    29    30    2
     5    31    32    1
     6    18    19    1
     7    21    20    2
     8    32    33   ar
     9    32    34   ar
    10    20    19    1
    11    19    22    1
    12    33    35   ar
    13    60    61    1
    14     1     2    1
    15    34    36   ar
    16    13    12    2
    17    12    11    1
    18    37    38    1
    19    22    23    1
    20    35    36   ar
    21    61    64    1
    22    61    62    1
    23    23    24    1
    24    64    65    1
    25    10    11    1
    26    10     3   am
    27     2     3    1
    28     2     5    1
    29   129   130   ar
    30   129   127   ar
    31    11    14    1
    32     3     4    2
    33    66    65    2
    34   130   128   ar
    35    65    67   am
    36   108   109    1
    37    38    41    1
    38    38    39    1
    39    62    63    2
    40    62    68   am
    41    41    42    1
    42     5     6    1
    43   127   124   ar
    44   116   114   ar
    45    24    25    1
    46   113   114    1
    47   113   112    1
    48    25    26    1
    49    40    39    2
    50    68    69    1
    51    14    15    1
    52    89    90    1
    53   109   112    1
    54   109   110    1
    55   128   126   ar
    56   114   115   ar
    57    42    43   ar
    58    42    44   ar
    59    54    53    2
    60    90    91    1
    61    90    93    1
    62   124   126   ar
    63   124   122   ar
    64     6     7    1
    65    94    93    1
    66    94    95    1
    67   117   118    1
    68   126   125   ar
    69   118   119    1
    70   118   121    1
    71    15    17   am
    72    15    16    2
    73    43    45   ar
    74    47    44   ar
    75    47    49   ar
    76    69    70    1
    77    69    72    1
    78   110   111    2
    79    44    46   ar
    80    97    95   am
    81    70    71    2
    82    92    91    2
    83   119   120    2
    84     8     7   ar
    85    95    96    2
    86    53    52    1
    87     7     9   ar
    88   122   121    1
    89   122   123   ar
    90    49    50   ar
    91    73    72    1
    92    73    74    1
    93    45    46   ar
    94    46    48   ar
    95    55    52    1
    96    55    56    1
    97   125   123   ar
    98    59    57   am
    99    77    78    1
   100    58    57    2
   101    57    56    1
   102    52    51    1
   103    50    48   ar
   104    74    76   ar
   105    74    75   ar
   106    78    79    1
   107    78    81    1
   108   107   106   ar
   109   107   105   ar
   110   106   104   ar
   111    79    80    2
   112   105   103   ar
   113    81    82    1
   114    98    99    1
   115    84    82   ar
   116    84    86   ar
   117   104   103   ar
   118   103   102    1
   119    82    83   ar
   120    86    87   ar
   121    99   102    1
   122    99   100    1
   123   137   139   ar
   124   137   136   ar
   125   139   140   ar
   126    83    85   ar
   127   136   135    1
   128   136   138   ar
   129   140   142   ar
   130   140   138   ar
   131   135   132    1
   132    87    85   ar
   133    87    88    1
   134   100   101    2
   135   142   144   ar
   136   138   141   ar
   137   131   132    1
   138   144   143   ar
   139   141   143   ar
   140   132   133    1
   141   133   134    2
