@<TRIPOS>MOLECULE
tmp/1vbsA00.pdb
 131 127 0 0 0
SMALL
GASTEIGER

@<TRIPOS>ATOM
      1  N          9.8260   22.8560   23.7790 N.3    54  ARG54      -0.1245
      2  CA        11.0790   23.5690   23.9500 C.3    54  ARG54       0.1563
      3  C         10.8590   24.9110   24.5800 C.2    54  ARG54       0.2260
      4  O         10.2410   25.7840   23.9760 O.2    54  ARG54      -0.2867
      5  CB        11.8090   23.7350   22.6080 C.3    54  ARG54       0.0307
      6  CG        13.1170   24.5230   22.6990 C.3    54  ARG54       0.0489
      7  CD        13.8570   24.5090   21.3810 C.3    54  ARG54       0.2205
      8  NE        14.0670   23.1380   20.9350 N.pl3  54  ARG54      -0.0865
      9  CZ        14.1830   22.7680   19.6620 C.cat  54  ARG54       0.5346
     10  NH1       14.1150   23.6730   18.6810 N.pl3  54  ARG54       0.1354
     11  NH2       14.3310   21.4770   19.3670 N.pl3  54  ARG54       0.1354
     12  N         12.9240   28.0190   26.6050 N.3    56  ILE56      -0.1245
     13  CA        14.2200   28.5720   26.9190 C.3    56  ILE56       0.1561
     14  C         14.0730   29.9240   27.5630 C.2    56  ILE56       0.2260
     15  O         13.7830   30.9170   26.8880 O.2    56  ILE56      -0.2867
     16  CB        15.0860   28.6840   25.6390 C.3    56  ILE56       0.0252
     17  CG1       15.4100   27.2920   25.1240 C.3    56  ILE56       0.0019
     18  CG2       16.3690   29.4220   25.8980 C.3    56  ILE56       0.0019
     19  CD1       16.3020   27.2920   23.9350 C.3    56  ILE56       0.0001
     20  N         14.1710   33.7380   26.1500 N.3    59  PHE59      -0.1227
     21  CA        14.2090   33.6120   24.7080 C.3    59  PHE59       0.1736
     22  C         12.8020   33.3440   24.1730 C.2    59  PHE59       0.2595
     23  O         12.1300   34.2630   23.7230 O.2    59  PHE59      -0.2718
     24  CB        15.2010   32.5020   24.3370 C.3    59  PHE59       0.0547
     25  CG        15.4400   32.3480   22.8560 C.ar   59  PHE59      -0.0202
     26  CD1       15.0800   33.3450   21.9560 C.ar   59  PHE59      -0.0042
     27  CD2       16.0050   31.1820   22.3590 C.ar   59  PHE59      -0.0042
     28  CE1       15.2760   33.1810   20.5830 C.ar   59  PHE59      -0.0003
     29  CE2       16.2040   31.0120   20.9900 C.ar   59  PHE59      -0.0003
     30  CZ        15.8350   32.0170   20.1030 C.ar   59  PHE59      -0.0000
     31  N         12.3110   32.1230   24.3190 N.am   60  MET60      -0.1979
     32  CA        10.9980   31.8140   23.8010 C.3    60  MET60       0.1605
     33  C         10.4640   30.4900   24.2910 C.2    60  MET60       0.2287
     34  O         11.1870   29.7270   24.9270 O.2    60  MET60      -0.2864
     35  CB        11.0360   31.8360   22.2590 C.3    60  MET60       0.0413
     36  CG        12.1810   31.0280   21.5940 C.3    60  MET60       0.0598
     37  SD        11.8140   29.2780   21.3550 S.3    60  MET60      -0.1393
     38  CE        13.4070   28.5300   21.1920 C.3    60  MET60       0.0692
     39  N          8.4290   27.2080   22.6990 N.3    62  GLN62      -0.1245
     40  CA         8.0800   26.5640   21.4290 C.3    62  GLN62       0.1566
     41  C          7.1750   25.3470   21.5300 C.2    62  GLN62       0.2260
     42  O          7.4080   24.4410   22.3300 O.2    62  GLN62      -0.2867
     43  CB         9.3570   26.1980   20.6630 C.3    62  GLN62       0.0367
     44  CG         9.1360   25.6790   19.2410 C.3    62  GLN62       0.0905
     45  CD        10.4220   25.2000   18.5800 C.2    62  GLN62       0.2608
     46  OE1       11.4830   25.7880   18.7640 O.2    62  GLN62      -0.2717
     47  NE2       10.3260   24.1340   17.7860 N.am   62  GLN62      -0.0878
     48  N          8.2590   28.5090   13.6060 N.3   100  ALA100     -0.1231
     49  CA         9.4970   27.7590   13.7700 C.3   100  ALA100      0.1694
     50  C          9.6410   27.0470   12.4190 C.2   100  ALA100      0.2592
     51  O          8.6450   26.7380   11.7710 O.2   100  ALA100     -0.2718
     52  CB         9.3610   26.7350   14.9200 C.3   100  ALA100      0.0304
     53  N         10.8620   26.7650   11.9940 N.am  101  ASN101     -0.1960
     54  CA        11.0410   26.1150   10.7020 C.3   101  ASN101      0.1819
     55  C         12.3690   25.3560   10.6000 C.2   101  ASN101      0.2621
     56  O         13.2230   25.4320   11.4890 O.2   101  ASN101     -0.2715
     57  CB        10.9030   27.1570    9.5730 C.3   101  ASN101      0.1195
     58  CG        12.0000   28.1850    9.5890 C.2   101  ASN101      0.2630
     59  OD1       13.1750   27.8450    9.6720 O.2   101  ASN101     -0.2716
     60  ND2       11.6330   29.4510    9.5020 N.am  101  ASN101     -0.0877
     61  N         12.5040   24.5610    9.5530 N.am  102  ALA102     -0.1963
     62  CA        13.7160   23.7930    9.3230 C.3   102  ALA102      0.1728
     63  C         14.5100   24.4440    8.1960 C.2   102  ALA102      0.2616
     64  O         15.2730   23.7770    7.4970 O.2   102  ALA102     -0.2715
     65  CB        13.3540   22.3750    8.9360 C.3   102  ALA102      0.0334
     66  N         14.3420   25.7450    8.0220 N.am  103  GLY103     -0.1955
     67  CA        15.0390   26.4330    6.9620 C.3   103  GLY103      0.1869
     68  C         13.9950   27.1520    6.1470 C.2   103  GLY103      0.2309
     69  O         12.8230   27.0630    6.4730 O.2   103  GLY103     -0.2863
     70  N          6.5630   29.5760   17.9950 N.3   112  PHE112     -0.1241
     71  CA         7.2680   29.9280   19.2130 C.3   112  PHE112      0.1605
     72  C          6.7830   31.3010   19.6940 C.2   112  PHE112      0.2264
     73  O          6.3980   32.1380   18.8870 O.2   112  PHE112     -0.2867
     74  CB         8.8130   29.8220   19.0750 C.3   112  PHE112      0.0534
     75  CG         9.4550   30.7880   18.0870 C.ar  112  PHE112     -0.0203
     76  CD1        9.8950   32.0370   18.4950 C.ar  112  PHE112     -0.0042
     77  CD2        9.7040   30.4040   16.7710 C.ar  112  PHE112     -0.0042
     78  CE1       10.5660   32.8840   17.6260 C.ar  112  PHE112     -0.0003
     79  CE2       10.3800   31.2560   15.8980 C.ar  112  PHE112     -0.0003
     80  CZ        10.8060   32.4870   16.3330 C.ar  112  PHE112     -0.0000
     81  N         17.7300   38.8010   15.7540 N.3   120  TRP120     -0.1227
     82  CA        18.5370   37.9280   14.8870 C.3   120  TRP120      0.1737
     83  C         17.7050   36.9280   14.0710 C.2   120  TRP120      0.2595
     84  O         18.2390   36.1990   13.2310 O.2   120  TRP120     -0.2718
     85  CB        19.6160   37.1800   15.6880 C.3   120  TRP120      0.0564
     86  CG        19.1050   36.2710   16.7620 C.ar  120  TRP120      0.0003
     87  CD1       18.9230   34.9210   16.6830 C.ar  120  TRP120      0.0946
     88  CD2       18.6850   36.6580   18.0720 C.ar  120  TRP120      0.0152
     89  NE1       18.4010   34.4510   17.8600 N.ar  120  TRP120     -0.2442
     90  CE2       18.2400   35.4980   18.7270 C.ar  120  TRP120      0.0810
     91  CE3       18.6400   37.8800   18.7550 C.ar  120  TRP120      0.0012
     92  CZ2       17.7550   35.5160   20.0240 C.ar  120  TRP120      0.0191
     93  CZ3       18.1610   37.9010   20.0450 C.ar  120  TRP120      0.0001
     94  CH2       17.7220   36.7290   20.6670 C.ar  120  TRP120      0.0015
     95  N         16.3990   36.9020   14.3090 N.am  121  LEU121     -0.1980
     96  CA        15.5290   35.9780   13.5990 C.3   121  LEU121      0.1596
     97  C         14.7500   36.6200   12.4500 C.2   121  LEU121      0.2287
     98  O         14.0410   35.9130   11.7250 O.2   121  LEU121     -0.2864
     99  CB        14.5530   35.3310   14.5720 C.3   121  LEU121      0.0297
    100  CG        15.1110   34.4350   15.6690 C.3   121  LEU121      0.0022
    101  CD1       13.9350   33.9120   16.4620 C.3   121  LEU121      0.0001
    102  CD2       15.9200   33.2810   15.1020 C.3   121  LEU121      0.0001
    103  N         12.2910   33.8490   10.0960 N.3   125  HIS125     -0.1241
    104  CA        11.0880   33.2610   10.6660 C.3   125  HIS125      0.1621
    105  C          9.9760   34.2500   10.4350 C.2   125  HIS125      0.2264
    106  O         10.1930   35.4590   10.5660 O.2   125  HIS125     -0.2867
    107  CB        11.2830   32.9710   12.1510 C.3   125  HIS125      0.0745
    108  CG        12.3170   31.9240   12.4120 C.ar  125  HIS125      0.0817
    109  ND1       12.0040   30.5910   12.5400 N.ar  125  HIS125     -0.2268
    110  CD2       13.6660   31.9970   12.4510 C.ar  125  HIS125      0.1154
    111  CE1       13.1160   29.8800   12.6310 C.ar  125  HIS125      0.1986
    112  NE2       14.1420   30.7160   12.5790 N.ar  125  HIS125     -0.2212
    113  N         18.2560   25.8840   29.8830 N.3   147  ARG147     -0.1231
    114  CA        19.1710   26.5740   28.9540 C.3   147  ARG147      0.1694
    115  C         19.0450   26.0460   27.5370 C.2   147  ARG147      0.2592
    116  O         19.1120   26.7920   26.5700 O.2   147  ARG147     -0.2718
    117  CB        20.6320   26.3830   29.3730 C.3   147  ARG147      0.0321
    118  CG        20.9700   26.7360   30.8230 C.3   147  ARG147      0.0489
    119  CD        21.1550   28.2400   31.0370 C.3   147  ARG147      0.2205
    120  NE        21.5550   28.5380   32.4140 N.pl3 147  ARG147     -0.0865
    121  CZ        21.2530   29.6680   33.0550 C.cat 147  ARG147      0.5346
    122  NH1       20.4980   30.5990   32.4560 N.pl3 147  ARG147      0.1354
    123  NH2       21.6720   29.8540   34.3090 N.pl3 147  ARG147      0.1354
    124  N         18.8840   24.7410   27.4370 N.am  148  ASN148     -0.1974
    125  CA        18.7710   24.0690   26.1630 C.3   148  ASN148      0.1688
    126  C         17.3310   23.9120   25.6790 C.2   148  ASN148      0.2292
    127  O         17.0990   23.5460   24.5250 O.2   148  ASN148     -0.2864
    128  CB        19.4490   22.7040   26.2600 C.3   148  ASN148      0.1181
    129  CG        18.9370   21.8880   27.4380 C.2   148  ASN148      0.2629
    130  OD1       17.7310   21.6880   27.5890 O.2   148  ASN148     -0.2716
    131  ND2       19.8520   21.4370   28.2950 N.am  148  ASN148     -0.0877
@<TRIPOS>BOND
     1    68    69    2
     2    68    67    1
     3    67    66    1
     4    64    63    2
     5    66    63   am
     6    63    62    1
     7    65    62    1
     8    62    61    1
     9    60    58   am
    10    61    55   am
    11    57    58    1
    12    57    54    1
    13    58    59    2
    14   103   104    1
    15   105   106    2
    16   105   104    1
    17    55    54    1
    18    55    56    2
    19   104   107    1
    20    54    53    1
    21    98    97    2
    22    51    50    2
    23    53    50   am
    24   107   108    1
    25   108   110   ar
    26   108   109   ar
    27    50    49    1
    28    97    96    1
    29   110   112   ar
    30   109   111   ar
    31   112   111   ar
    32    84    83    2
    33    96    95    1
    34    96    99    1
    35    48    49    1
    36    49    52    1
    37    83    95   am
    38    83    82    1
    39    99   100    1
    40    82    85    1
    41    82    81    1
    42   102   100    1
    43   100   101    1
    44    85    86    1
    45    79    80   ar
    46    79    77   ar
    47    80    78   ar
    48    87    86   ar
    49    87    89   ar
    50    86    88   ar
    51    77    75   ar
    52    78    76   ar
    53    47    45   am
    54    89    90   ar
    55    70    71    1
    56    88    90   ar
    57    88    91   ar
    58    75    76   ar
    59    75    74    1
    60    45    46    2
    61    45    44    1
    62    10     9    1
    63    90    92   ar
    64    91    93   ar
    65    73    72    2
    66    74    71    1
    67    71    72    1
    68    44    43    1
    69    11     9    1
    70     9     8    2
    71    92    94   ar
    72    93    94   ar
    73    30    28   ar
    74    30    29   ar
    75    28    26   ar
    76    43    40    1
    77     8     7    1
    78    29    27   ar
    79    38    37    1
    80    37    36    1
    81     7     6    1
    82    40    41    1
    83    40    39    1
    84    41    42    2
    85    36    35    1
    86    26    25   ar
    87    35    32    1
    88    27    25   ar
    89     5     6    1
    90     5     2    1
    91    25    24    1
    92    23    22    2
    93     1     2    1
    94    32    33    1
    95    32    31    1
    96    19    17    1
    97     2     3    1
    98     4     3    2
    99    22    31   am
   100    22    21    1
   101    33    34    2
   102    24    21    1
   103   127   126    2
   104    21    20    1
   105    17    16    1
   106    16    18    1
   107    16    13    1
   108   126   125    1
   109   125   128    1
   110   125   124    1
   111   128   129    1
   112   116   115    2
   113    12    13    1
   114    15    14    2
   115    13    14    1
   116   124   115   am
   117   129   130    2
   118   129   131   am
   119   115   114    1
   120   114   117    1
   121   114   113    1
   122   117   118    1
   123   118   119    1
   124   119   120    1
   125   120   121    2
   126   122   121    1
   127   121   123    1
