@<TRIPOS>MOLECULE
tmp/1vc8A00.pdb
 164 159 0 0 0
SMALL
GASTEIGER

@<TRIPOS>ATOM
      1  N         65.3170    8.8010  141.8300 N.3    21  ASP21      -0.1239
      2  CA        64.1060    9.5860  142.0760 C.3    21  ASP21       0.1674
      3  C         63.6670   10.4930  140.9290 C.2    21  ASP21       0.2266
      4  O         64.2530   10.4780  139.8440 O.2    21  ASP21      -0.2867
      5  CB        64.2280   10.4080  143.3730 C.3    21  ASP21       0.1410
      6  CG        65.2850   11.5000  143.2960 C.2    21  ASP21       0.3668
      7  OD1       65.5920   11.9830  142.1880 O.co2  21  ASP21      -0.2456
      8  OD2       65.7960   11.8940  144.3660 O.co2  21  ASP21      -0.2456
      9  N         63.9760   13.6220  140.5540 N.3    23  MET23      -0.1245
     10  CA        64.9560   14.6230  140.1700 C.3    23  MET23       0.1570
     11  C         66.1700   13.9670  139.5240 C.2    23  MET23       0.2261
     12  O         67.1530   14.6330  139.2010 O.2    23  MET23      -0.2867
     13  CB        65.3680   15.4510  141.3890 C.3    23  MET23       0.0387
     14  CG        64.2050   16.2320  141.9990 C.3    23  MET23       0.0595
     15  SD        64.6820   17.3760  143.3150 S.3    23  MET23      -0.1393
     16  CE        65.3920   18.7130  142.3580 C.3    23  MET23       0.0692
     17  N         68.1590   11.5140  140.8900 N.3    25  PHE25      -0.1241
     18  CA        69.2280   11.1830  141.8250 C.3    25  PHE25       0.1605
     19  C         69.1210    9.7320  142.2910 C.2    25  PHE25       0.2264
     20  O         68.0360    9.2750  142.6570 O.2    25  PHE25      -0.2867
     21  CB        69.1540   12.0910  143.0600 C.3    25  PHE25       0.0534
     22  CG        69.4070   13.5450  142.7710 C.ar   25  PHE25      -0.0203
     23  CD1       70.6060   13.9540  142.1950 C.ar   25  PHE25      -0.0042
     24  CD2       68.4590   14.5080  143.1000 C.ar   25  PHE25      -0.0042
     25  CE1       70.8610   15.3040  141.9530 C.ar   25  PHE25      -0.0003
     26  CE2       68.7030   15.8620  142.8630 C.ar   25  PHE25      -0.0003
     27  CZ        69.9070   16.2600  142.2890 C.ar   25  PHE25      -0.0000
     28  N         69.4730    7.0480  144.9860 N.3    27  VAL27      -0.1245
     29  CA        69.4790    7.0320  146.4450 C.3    27  VAL27       0.1561
     30  C         68.9060    5.7030  146.9260 C.2    27  VAL27       0.2260
     31  O         68.5510    4.8500  146.1150 O.2    27  VAL27      -0.2867
     32  CB        68.5940    8.1730  147.0210 C.3    27  VAL27       0.0252
     33  CG1       69.0850    9.5310  146.5190 C.3    27  VAL27       0.0019
     34  CG2       67.1420    7.9580  146.6090 C.3    27  VAL27       0.0019
     35  N         63.4160    5.0160  150.9640 N.3    30  LYS30      -0.1231
     36  CA        63.0440    5.4580  152.3060 C.3    30  LYS30       0.1693
     37  C         61.7520    6.2580  152.2200 C.2    30  LYS30       0.2593
     38  O         61.3530    6.6730  151.1290 O.2    30  LYS30      -0.2718
     39  CB        64.1680    6.3180  152.9130 C.3    30  LYS30       0.0285
     40  CG        64.3700    7.7120  152.2870 C.3    30  LYS30       0.0035
     41  CD        63.4390    8.7560  152.9150 C.3    30  LYS30       0.0206
     42  CE        63.7510   10.1760  152.4440 C.3    30  LYS30       0.1093
     43  NZ        63.6560   10.3140  150.9620 N.3    30  LYS30      -0.1314
     44  N         61.0940    6.4610  153.3600 N.am   31  GLY31      -0.1942
     45  CA        59.8610    7.2260  153.3710 C.3    31  GLY31       0.2014
     46  C         59.4450    7.6280  154.7740 C.2    31  GLY31       0.2638
     47  O         60.1460    7.3270  155.7430 O.2    31  GLY31      -0.2714
     48  N         58.3000    8.3010  154.8890 N.am   32  HIS32      -0.1973
     49  CA        57.8070    8.7330  156.1930 C.3    32  HIS32       0.1656
     50  C         57.1920    7.5950  156.9930 C.2    32  HIS32       0.2291
     51  O         56.4350    6.7780  156.4620 O.2    32  HIS32      -0.2864
     52  CB        56.7440    9.8350  156.0610 C.3    32  HIS32       0.0771
     53  CG        57.2630   11.1280  155.5180 C.ar   32  HIS32       0.0820
     54  ND1       57.3400   11.3920  154.1670 N.ar   32  HIS32      -0.2267
     55  CD2       57.7330   12.2330  156.1440 C.ar   32  HIS32       0.1154
     56  CE1       57.8350   12.6040  153.9850 C.ar   32  HIS32       0.1986
     57  NE2       58.0820   13.1350  155.1690 N.ar   32  HIS32      -0.2212
     58  N         58.5250    0.8380  153.3880 N.3    46  GLU46      -0.1245
     59  CA        58.9050    1.7490  152.3180 C.3    46  GLU46       0.1567
     60  C         59.6800    1.0210  151.2240 C.2    46  GLU46       0.2260
     61  O         59.4890    1.2940  150.0420 O.2    46  GLU46      -0.2867
     62  CB        59.7310    2.9140  152.8720 C.3    46  GLU46       0.0388
     63  CG        58.9250    3.9340  153.6720 C.3    46  GLU46       0.1160
     64  CD        57.8830    4.6510  152.8250 C.2    46  GLU46       0.3649
     65  OE1       58.0820    4.7460  151.5990 O.co2  46  GLU46      -0.2457
     66  OE2       56.8740    5.1340  153.3820 O.co2  46  GLU46      -0.2457
     67  N         58.1980    1.0940  147.4930 N.3    50  GLU50      -0.1245
     68  CA        58.9490    1.7640  146.4460 C.3    50  GLU50       0.1567
     69  C         59.7070    0.8970  145.4640 C.2    50  GLU50       0.2260
     70  O         59.9570    1.3270  144.3410 O.2    50  GLU50      -0.2867
     71  CB        59.9070    2.7720  147.0750 C.3    50  GLU50       0.0388
     72  CG        59.1800    3.8590  147.8410 C.3    50  GLU50       0.1160
     73  CD        60.0730    5.0180  148.2050 C.2    50  GLU50       0.3649
     74  OE1       59.5240    6.0700  148.5870 O.co2  50  GLU50      -0.2457
     75  OE2       61.3120    4.8790  148.1150 O.co2  50  GLU50      -0.2457
     76  N         69.8230   16.0390  156.1020 N.3    66  TYR66      -0.1227
     77  CA        69.9820   16.9740  154.9960 C.3    66  TYR66       0.1736
     78  C         68.6920   17.7690  154.8260 C.2    66  TYR66       0.2595
     79  O         67.6420   17.3850  155.3460 O.2    66  TYR66      -0.2718
     80  CB        70.2730   16.2220  153.6980 C.3    66  TYR66       0.0548
     81  CG        69.1950   15.2300  153.3340 C.ar   66  TYR66      -0.0200
     82  CD1       69.2650   13.9080  153.7700 C.ar   66  TYR66      -0.0009
     83  CD2       68.0930   15.6160  152.5700 C.ar   66  TYR66      -0.0009
     84  CE1       68.2670   12.9940  153.4530 C.ar   66  TYR66       0.0417
     85  CE2       67.0840   14.7070  152.2500 C.ar   66  TYR66       0.0417
     86  CZ        67.1810   13.3990  152.6940 C.ar   66  TYR66       0.1957
     87  OH        66.2010   12.4910  152.3740 O.3    66  TYR66      -0.2866
     88  N         68.7730   18.8730  154.0940 N.am   67  VAL67      -0.1966
     89  CA        67.6010   19.7040  153.8390 C.3    67  VAL67       0.1727
     90  C         67.1770   19.4630  152.3980 C.2    67  VAL67       0.2616
     91  O         67.9860   19.6010  151.4830 O.2    67  VAL67      -0.2715
     92  CB        67.9230   21.2050  154.0270 C.3    67  VAL67       0.0290
     93  CG1       66.6750   22.0500  153.7680 C.3    67  VAL67       0.0023
     94  CG2       68.4370   21.4510  155.4360 C.3    67  VAL67       0.0023
     95  N         65.9190   19.0870  152.1890 N.am   68  ASN68      -0.1959
     96  CA        65.4490   18.8360  150.8330 C.3    68  ASN68       0.1804
     97  C         65.2070   20.1480  150.0820 C.2    68  ASN68       0.2463
     98  O         65.2890   21.2300  150.6620 O.2    68  ASN68      -0.2730
     99  CB        64.1740   17.9770  150.8460 C.3    68  ASN68       0.1195
    100  CG        62.9910   18.6830  151.4730 C.2    68  ASN68       0.2630
    101  OD1       62.9200   19.9110  151.4910 O.2    68  ASN68      -0.2716
    102  ND2       62.0380   17.9040  151.9730 N.am   68  ASN68      -0.0877
    103  N         64.9240   20.0670  148.7730 N.am   69  PRO69      -0.2727
    104  CA        64.6760   21.2550  147.9520 C.3    69  PRO69       0.1402
    105  C         63.6200   22.2240  148.4870 C.2    69  PRO69       0.2269
    106  O         63.6540   23.4120  148.1750 O.2    69  PRO69      -0.2865
    107  CB        64.2820   20.6580  146.6070 C.3    69  PRO69       0.0296
    108  CG        65.1410   19.4380  146.5400 C.3    69  PRO69       0.0237
    109  CD        64.9820   18.8570  147.9300 C.3    69  PRO69       0.0939
    110  N         65.5330   16.8260  156.9240 N.3    74  ARG74      -0.1245
    111  CA        65.1270   15.4450  157.1080 C.3    74  ARG74       0.1563
    112  C         66.1530   14.6790  157.9200 C.2    74  ARG74       0.2260
    113  O         67.3510   14.9350  157.8250 O.2    74  ARG74      -0.2867
    114  CB        64.9580   14.7550  155.7490 C.3    74  ARG74       0.0307
    115  CG        63.9030   15.3730  154.8330 C.3    74  ARG74       0.0489
    116  CD        62.5300   15.3640  155.4820 C.3    74  ARG74       0.2205
    117  NE        62.0910   14.0240  155.8580 N.pl3  74  ARG74      -0.0865
    118  CZ        61.6530   13.1030  155.0060 C.cat  74  ARG74       0.5346
    119  NH1       61.5880   13.3700  153.7080 N.pl3  74  ARG74       0.1354
    120  NH2       61.2830   11.9100  155.4550 N.pl3  74  ARG74       0.1354
    121  N         57.5310    2.5260  141.5660 N.3    90  GLU90      -0.1245
    122  CA        56.2140    3.0690  141.8600 C.3    90  GLU90       0.1567
    123  C         56.2010    4.4000  141.1170 C.2    90  GLU90       0.2260
    124  O         57.2630    4.9170  140.7570 O.2    90  GLU90      -0.2867
    125  CB        56.0140    3.2840  143.3690 C.3    90  GLU90       0.0388
    126  CG        56.8490    4.3950  143.9790 C.3    90  GLU90       0.1160
    127  CD        56.4730    4.6970  145.4270 C.2    90  GLU90       0.3649
    128  OE1       57.0530    5.6420  145.9980 O.co2  90  GLU90      -0.2457
    129  OE2       55.6050    4.0000  145.9960 O.co2  90  GLU90      -0.2457
    130  N         74.5650   11.4840  146.6220 N.3   110  PHE110     -0.1228
    131  CA        75.0270   12.2160  147.8000 C.3   110  PHE110      0.1721
    132  C         76.0600   11.5690  148.7190 C.2   110  PHE110      0.2437
    133  O         76.0690   10.3560  148.9120 O.2   110  PHE110     -0.2733
    134  CB        73.7960   12.6240  148.6130 C.3   110  PHE110      0.0547
    135  CG        72.7470   13.3210  147.7890 C.ar  110  PHE110     -0.0202
    136  CD1       72.9500   14.6270  147.3420 C.ar  110  PHE110     -0.0042
    137  CD2       71.5890   12.6500  147.4030 C.ar  110  PHE110     -0.0042
    138  CE1       72.0150   15.2550  146.5160 C.ar  110  PHE110     -0.0003
    139  CE2       70.6460   13.2670  146.5770 C.ar  110  PHE110     -0.0003
    140  CZ        70.8600   14.5700  146.1310 C.ar  110  PHE110     -0.0000
    141  N         76.9310   12.3980  149.3200 N.am  111  PRO111     -0.2718
    142  CA        78.0070   12.0040  150.2400 C.3   111  PRO111      0.1535
    143  C         77.4920   11.2160  151.4420 C.2   111  PRO111      0.2598
    144  O         78.1340   10.2700  151.9010 O.2   111  PRO111     -0.2715
    145  CB        78.6120   13.3430  150.6680 C.3   111  PRO111      0.0310
    146  CG        78.2690   14.2640  149.5550 C.3   111  PRO111      0.0237
    147  CD        76.8770   13.8650  149.1880 C.3   111  PRO111      0.0939
    148  N         76.3390   11.6210  151.9620 N.am  112  GLU112     -0.1964
    149  CA        75.7550   10.9380  153.1120 C.3   112  GLU112      0.1733
    150  C         75.4710    9.4740  152.7860 C.2   112  GLU112      0.2616
    151  O         75.6300    8.5990  153.6350 O.2   112  GLU112     -0.2715
    152  CB        74.4520   11.6180  153.5520 C.3   112  GLU112      0.0429
    153  CG        74.6340   12.9930  154.2060 C.3   112  GLU112      0.1163
    154  CD        74.7400   14.1310  153.2040 C.2   112  GLU112      0.3649
    155  OE1       74.8330   13.8650  151.9870 O.co2 112  GLU112     -0.2457
    156  OE2       74.7280   15.2980  153.6430 O.co2 112  GLU112     -0.2457
    157  N         75.0600    9.2090  151.5500 N.am  113  ASP113     -0.1971
    158  CA        74.7450    7.8440  151.1490 C.3   113  ASP113      0.1709
    159  C         75.9730    7.0010  150.8270 C.2   113  ASP113      0.2293
    160  O         75.9370    5.7830  150.9680 O.2   113  ASP113     -0.2864
    161  CB        73.7770    7.8420  149.9610 C.3   113  ASP113      0.1436
    162  CG        72.4080    8.4060  150.3250 C.2   113  ASP113      0.3671
    163  OD1       71.9530    8.1810  151.4650 O.co2 113  ASP113     -0.2456
    164  OD2       71.7810    9.0580  149.4680 O.co2 113  ASP113     -0.2456
@<TRIPOS>BOND
     1    12    11    2
     2    11    10    1
     3     4     3    2
     4    10     9    1
     5    10    13    1
     6   124   123    2
     7    17    18    1
     8     3     2    1
     9   123   122    1
    10    13    14    1
    11   121   122    1
    12    18    19    1
    13    18    21    1
    14     1     2    1
    15   122   125    1
    16    25    23   ar
    17    25    27   ar
    18    14    15    1
    19     2     5    1
    20     7     6   ar
    21    23    22   ar
    22    27    26   ar
    23    19    20    2
    24    16    15    1
    25    22    21    1
    26    22    24   ar
    27    26    24   ar
    28     6     5    1
    29     6     8   ar
    30   125   126    1
    31   126   127    1
    32    70    69    2
    33    28    29    1
    34   127   129   ar
    35   127   128   ar
    36    69    68    1
    37    31    30    2
    38   140   138   ar
    39   140   139   ar
    40    29    30    1
    41    29    32    1
    42    68    71    1
    43    68    67    1
    44   138   136   ar
    45    33    32    1
    46   108   107    1
    47   108   109    1
    48   139   137   ar
    49   107   104    1
    50    34    32    1
    51   130   131    1
    52    71    72    1
    53   136   135   ar
    54   137   135   ar
    55   135   134    1
    56   131   134    1
    57   131   132    1
    58    72    73    1
    59   109   103    1
    60   104   105    1
    61   104   103    1
    62    75    73   ar
    63   106   105    2
    64    73    74   ar
    65   132   133    2
    66   132   141   am
    67   103    97   am
    68   147   141    1
    69   147   146    1
    70   141   142    1
    71   164   162   ar
    72   146   145    1
    73   161   162    1
    74   161   158    1
    75    61    60    2
    76    97    98    2
    77    97    96    1
    78   142   145    1
    79   142   143    1
    80   162   163   ar
    81   159   160    2
    82   159   158    1
    83    96    99    1
    84    96    95    1
    85    99   100    1
    86    43    42    1
    87    35    36    1
    88    38    37    2
    89   158   157    1
    90    60    59    1
    91   143   144    2
    92   143   148   am
    93   100   101    2
    94   100   102   am
    95    91    90    2
    96   157   150   am
    97    65    64   ar
    98   148   149    1
    99   155   154   ar
   100    95    90   am
   101    37    36    1
   102    37    44   am
   103    85    83   ar
   104    85    86   ar
   105    40    39    1
   106    40    41    1
   107    36    39    1
   108    59    62    1
   109    59    58    1
   110    87    86    1
   111    90    89    1
   112    42    41    1
   113    83    81   ar
   114    86    84   ar
   115   150   149    1
   116   150   151    2
   117    64    66   ar
   118    64    63    1
   119    62    63    1
   120   149   152    1
   121   154   156   ar
   122   154   153    1
   123    81    80    1
   124    81    82   ar
   125    44    45    1
   126    45    46    1
   127    84    82   ar
   128   152   153    1
   129    80    77    1
   130   119   118    1
   131    93    92    1
   132    89    92    1
   133    89    88    1
   134    56    54   ar
   135    56    57   ar
   136    92    94    1
   137    88    78   am
   138    54    53   ar
   139    46    48   am
   140    46    47    2
   141    78    77    1
   142    78    79    2
   143   115   116    1
   144   115   114    1
   145    48    49    1
   146    77    76    1
   147   118   120    1
   148   118   117    2
   149    57    55   ar
   150   116   117    1
   151    53    52    1
   152    53    55   ar
   153   114   111    1
   154    52    49    1
   155    49    50    1
   156    51    50    2
   157   110   111    1
   158   111   112    1
   159   113   112    2
