@<TRIPOS>MOLECULE
tmp/1vc9A00.pdb
 148 147 0 0 0
SMALL
GASTEIGER

@<TRIPOS>ATOM
      1  N        -40.5430   76.1820   94.6460 N.3    21  ASP21      -0.1225
      2  CA       -40.2880   74.8090   95.0640 C.3    21  ASP21       0.1805
      3  C        -40.6250   73.7580   94.0090 C.2    21  ASP21       0.2598
      4  O        -40.9990   74.0810   92.8820 O.2    21  ASP21      -0.2718
      5  CB       -41.0230   74.4810   96.3780 C.3    21  ASP21       0.1424
      6  CG       -42.5400   74.4720   96.2270 C.2    21  ASP21       0.3668
      7  OD1      -43.0340   74.3140   95.0900 O.co2  21  ASP21      -0.2456
      8  OD2      -43.2380   74.6060   97.2570 O.co2  21  ASP21      -0.2456
      9  N        -40.4620   72.4990   94.3970 N.am   22  ARG22      -0.1966
     10  CA       -40.7280   71.3560   93.5330 C.3    22  ARG22       0.1729
     11  C        -42.1060   71.3930   92.9010 C.2    22  ARG22       0.2616
     12  O        -42.2650   71.1420   91.7100 O.2    22  ARG22      -0.2715
     13  CB       -40.6380   70.0710   94.3400 C.3    22  ARG22       0.0348
     14  CG       -39.2550   69.6350   94.7070 C.3    22  ARG22       0.0492
     15  CD       -39.3720   68.5980   95.8040 C.3    22  ARG22       0.2205
     16  NE       -40.5740   67.7820   95.6360 N.pl3  22  ARG22      -0.0865
     17  CZ       -41.2960   67.3090   96.6450 C.cat  22  ARG22       0.5346
     18  NH1      -40.9350   67.5740   97.8960 N.pl3  22  ARG22       0.1354
     19  NH2      -42.3850   66.5860   96.4040 N.pl3  22  ARG22       0.1354
     20  N        -43.1090   71.6950   93.7130 N.am   23  MET23      -0.1977
     21  CA       -44.4810   71.7120   93.2310 C.3    23  MET23       0.1605
     22  C        -44.9130   72.9720   92.5010 C.2    23  MET23       0.2287
     23  O        -46.0970   73.1570   92.2350 O.2    23  MET23      -0.2864
     24  CB       -45.4190   71.4160   94.3960 C.3    23  MET23       0.0413
     25  CG       -45.0680   70.1070   95.0840 C.3    23  MET23       0.0598
     26  SD       -46.2850   69.5710   96.2920 S.3    23  MET23      -0.1393
     27  CE       -47.4210   68.6700   95.2110 C.3    23  MET23       0.0692
     28  N        -44.6310   76.2210   93.5620 N.3    25  PHE25      -0.1241
     29  CA       -45.1050   77.3390   94.3730 C.3    25  PHE25       0.1605
     30  C        -43.9740   78.2860   94.7760 C.2    25  PHE25       0.2264
     31  O        -42.9020   77.8440   95.2000 O.2    25  PHE25      -0.2867
     32  CB       -45.7970   76.8240   95.6380 C.3    25  PHE25       0.0534
     33  CG       -46.9820   75.9560   95.3650 C.ar   25  PHE25      -0.0203
     34  CD1      -48.1740   76.5100   94.9060 C.ar   25  PHE25      -0.0042
     35  CD2      -46.9110   74.5830   95.5590 C.ar   25  PHE25      -0.0042
     36  CE1      -49.2810   75.7050   94.6450 C.ar   25  PHE25      -0.0003
     37  CE2      -48.0130   73.7700   95.3000 C.ar   25  PHE25      -0.0003
     38  CZ       -49.1970   74.3330   94.8430 C.ar   25  PHE25      -0.0000
     39  N        -42.3190   80.6060   97.2940 N.3    27  VAL27      -0.1245
     40  CA       -42.3360   80.7480   98.7410 C.3    27  VAL27       0.1561
     41  C        -41.0490   81.3950   99.2450 C.2    27  VAL27       0.2260
     42  O        -40.1340   81.6860   98.4570 O.2    27  VAL27      -0.2867
     43  CB       -42.4580   79.3650   99.3980 C.3    27  VAL27       0.0252
     44  CG1      -43.8230   78.7820   99.1360 C.3    27  VAL27       0.0019
     45  CG2      -41.3860   78.4360   98.8260 C.3    27  VAL27       0.0019
     46  N        -36.8980   78.3670  103.5930 N.3    30  LYS30      -0.1231
     47  CA       -36.9790   77.8330  104.9560 C.3    30  LYS30       0.1693
     48  C        -36.6700   76.3390  104.9480 C.2    30  LYS30       0.2593
     49  O        -36.7350   75.6990  103.9000 O.2    30  LYS30      -0.2718
     50  CB       -38.3810   78.0660  105.5400 C.3    30  LYS30       0.0285
     51  CG       -39.4990   77.2500  104.8940 C.3    30  LYS30       0.0035
     52  CD       -39.5850   75.8520  105.5090 C.3    30  LYS30       0.0206
     53  CE       -40.8270   75.0890  105.0480 C.3    30  LYS30       0.1093
     54  NZ       -40.8380   74.8270  103.5710 N.3    30  LYS30      -0.1314
     55  N        -36.3450   75.7890  106.1180 N.am   31  GLY31      -0.1942
     56  CA       -36.0430   74.3680  106.2160 C.3    31  GLY31       0.2014
     57  C        -36.1390   73.8280  107.6350 C.2    31  GLY31       0.2638
     58  O        -36.5410   74.5460  108.5550 O.2    31  GLY31      -0.2714
     59  N        -35.7750   72.5620  107.8230 N.am   32  HIS32      -0.1973
     60  CA       -35.8240   71.9560  109.1480 C.3    32  HIS32       0.1656
     61  C        -34.6430   72.3650  110.0140 C.2    32  HIS32       0.2291
     62  O        -33.5090   72.4270  109.5430 O.2    32  HIS32      -0.2864
     63  CB       -35.8040   70.4240  109.0710 C.3    32  HIS32       0.0771
     64  CG       -37.0490   69.8160  108.5120 C.ar   32  HIS32       0.0820
     65  ND1      -37.2870   69.7170  107.1580 N.ar   32  HIS32      -0.2267
     66  CD2      -38.1040   69.2270  109.1240 C.ar   32  HIS32       0.1154
     67  CE1      -38.4320   69.0880  106.9600 C.ar   32  HIS32       0.1986
     68  NE2      -38.9470   68.7790  108.1370 N.ar   32  HIS32      -0.2212
     69  N        -49.5340   75.0520  108.4650 N.3    66  TYR66      -0.1227
     70  CA       -50.2240   74.4500  107.3410 C.3    66  TYR66       0.1736
     71  C        -49.8520   72.9760  107.2720 C.2    66  TYR66       0.2595
     72  O        -48.8590   72.5490  107.8590 O.2    66  TYR66      -0.2718
     73  CB       -49.8180   75.1400  106.0300 C.3    66  TYR66       0.0548
     74  CG       -48.3370   75.0590  105.7270 C.ar   66  TYR66      -0.0200
     75  CD1      -47.4670   76.0520  106.1520 C.ar   66  TYR66      -0.0009
     76  CD2      -47.8030   73.9700  105.0320 C.ar   66  TYR66      -0.0009
     77  CE1      -46.0910   75.9720  105.8950 C.ar   66  TYR66       0.0417
     78  CE2      -46.4370   73.8760  104.7710 C.ar   66  TYR66       0.0417
     79  CZ       -45.5860   74.8830  105.2080 C.ar   66  TYR66       0.1957
     80  OH       -44.2340   74.7910  104.9800 O.3    66  TYR66      -0.2866
     81  N        -50.6600   72.1980  106.5670 N.am   67  VAL67      -0.1966
     82  CA       -50.3890   70.7770  106.3960 C.3    67  VAL67       0.1727
     83  C        -49.8870   70.6460  104.9710 C.2    67  VAL67       0.2616
     84  O        -50.5660   71.0930  104.0440 O.2    67  VAL67      -0.2715
     85  CB       -51.6720   69.9330  106.5300 C.3    67  VAL67       0.0290
     86  CG1      -51.3380   68.4460  106.4040 C.3    67  VAL67       0.0023
     87  CG2      -52.3470   70.2300  107.8570 C.3    67  VAL67       0.0023
     88  N        -48.7060   70.0620  104.7850 N.am   68  ASN68      -0.1959
     89  CA       -48.1770   69.9000  103.4300 C.3    68  ASN68       0.1804
     90  C        -48.8810   68.7370  102.7120 C.2    68  ASN68       0.2463
     91  O        -49.6240   67.9720  103.3340 O.2    68  ASN68      -0.2730
     92  CB       -46.6450   69.6970  103.4510 C.3    68  ASN68       0.1195
     93  CG       -46.2260   68.3640  104.0470 C.2    68  ASN68       0.2630
     94  OD1      -46.9270   67.3620  103.9210 O.2    68  ASN68      -0.2716
     95  ND2      -45.0550   68.3420  104.6750 N.am   68  ASN68      -0.0877
     96  N        -48.6650   68.5930  101.3920 N.am   69  PRO69      -0.2727
     97  CA       -49.2920   67.5220  100.6040 C.3    69  PRO69       0.1402
     98  C        -49.0300   66.0940  101.0790 C.2    69  PRO69       0.2269
     99  O        -49.6850   65.1560  100.6220 O.2    69  PRO69      -0.2865
    100  CB       -48.7520   67.7730   99.2000 C.3    69  PRO69       0.0296
    101  CG       -48.5860   69.2760   99.1790 C.3    69  PRO69       0.0237
    102  CD       -47.9170   69.5090  100.5100 C.3    69  PRO69       0.0939
    103  N        -46.8580   71.4890  109.3870 N.3    74  ARG74      -0.1245
    104  CA       -45.6280   72.2390  109.6250 C.3    74  ARG74       0.1563
    105  C        -45.9060   73.5450  110.3710 C.2    74  ARG74       0.2260
    106  O        -46.9090   74.2150  110.1160 O.2    74  ARG74      -0.2867
    107  CB       -44.9360   72.6100  108.2980 C.3    74  ARG74       0.0307
    108  CG       -44.5400   71.4580  107.3710 C.3    74  ARG74       0.0489
    109  CD       -43.5740   70.4740  108.0390 C.3    74  ARG74       0.2205
    110  NE       -42.3330   71.0900  108.5080 N.pl3  74  ARG74      -0.0865
    111  CZ       -41.3310   71.4920  107.7270 C.cat  74  ARG74       0.5346
    112  NH1      -41.3990   71.3610  106.4030 N.pl3  74  ARG74       0.1354
    113  NH2      -40.2370   72.0080  108.2820 N.pl3  74  ARG74       0.1354
    114  N        -49.4080   81.3360   98.7160 N.3   110  PHE110     -0.1228
    115  CA       -50.2630   81.1390   99.8870 C.3   110  PHE110      0.1721
    116  C        -50.6180   82.3550  100.7450 C.2   110  PHE110      0.2437
    117  O        -49.8170   83.2800  100.9140 O.2   110  PHE110     -0.2733
    118  CB       -49.6400   80.0520  100.7640 C.3   110  PHE110      0.0547
    119  CG       -49.4540   78.7530  100.0490 C.ar  110  PHE110     -0.0202
    120  CD1      -50.5390   77.9220   99.8060 C.ar  110  PHE110     -0.0042
    121  CD2      -48.2020   78.3840   99.5670 C.ar  110  PHE110     -0.0042
    122  CE1      -50.3800   76.7350   99.0880 C.ar  110  PHE110     -0.0003
    123  CE2      -48.0290   77.2010   98.8470 C.ar  110  PHE110     -0.0003
    124  CZ       -49.1200   76.3740   98.6070 C.ar  110  PHE110     -0.0000
    125  N        -51.8330   82.3480  101.3180 N.am  111  PRO111     -0.2718
    126  CA       -52.3730   83.4140  102.1770 C.3   111  PRO111      0.1535
    127  C        -51.4310   83.7660  103.3190 C.2   111  PRO111      0.2598
    128  O        -51.1860   84.9390  103.6060 O.2   111  PRO111     -0.2715
    129  CB       -53.6810   82.8180  102.7000 C.3   111  PRO111      0.0310
    130  CG       -54.0850   81.8550  101.6290 C.3   111  PRO111      0.0237
    131  CD       -52.7750   81.2150  101.2320 C.3   111  PRO111      0.0939
    132  N        -50.9250   82.7300  103.9810 N.am  112  GLU112     -0.1964
    133  CA       -50.0010   82.9040  105.0910 C.3   112  GLU112      0.1733
    134  C        -48.7520   83.6790  104.6670 C.2   112  GLU112      0.2616
    135  O        -48.2290   84.4970  105.4210 O.2   112  GLU112     -0.2715
    136  CB       -49.5730   81.5410  105.6460 C.3   112  GLU112      0.0429
    137  CG       -50.6680   80.7440  106.3270 C.3   112  GLU112      0.1163
    138  CD       -51.6650   80.1530  105.3600 C.2   112  GLU112      0.3649
    139  OE1      -51.3820   80.1170  104.1430 O.co2 112  GLU112     -0.2457
    140  OE2      -52.7320   79.7030  105.8270 O.co2 112  GLU112     -0.2457
    141  N        -48.2690   83.4170  103.4590 N.am  113  ASP113     -0.1971
    142  CA       -47.0800   84.1040  102.9900 C.3   113  ASP113      0.1709
    143  C        -47.3680   85.5290  102.5570 C.2   113  ASP113      0.2293
    144  O        -46.5520   86.4230  102.7790 O.2   113  ASP113     -0.2864
    145  CB       -46.4220   83.3110  101.8680 C.3   113  ASP113      0.1436
    146  CG       -45.8380   82.0080  102.3620 C.2   113  ASP113      0.3671
    147  OD1      -45.2040   82.0200  103.4400 O.co2 113  ASP113     -0.2456
    148  OD2      -46.0080   80.9780  101.6820 O.co2 113  ASP113     -0.2456
@<TRIPOS>BOND
     1    12    11    2
     2    23    22    2
     3    22    21    1
     4     4     3    2
     5    11    10    1
     6    11    20   am
     7    21    20    1
     8    21    24    1
     9    10    13    1
    10    10     9    1
    11    28    29    1
    12     3     9   am
    13     3     2    1
    14    13    14    1
    15    29    30    1
    16    29    32    1
    17    24    25    1
    18    36    38   ar
    19    36    34   ar
    20     1     2    1
    21    14    15    1
    22    30    31    2
    23    38    37   ar
    24    34    33   ar
    25     2     5    1
    26    25    26    1
    27     7     6   ar
    28    27    26    1
    29    37    35   ar
    30    33    35   ar
    31    33    32    1
    32    16    15    1
    33    16    17    2
    34     6     5    1
    35     6     8   ar
    36    19    17    1
    37    17    18    1
    38    39    40    1
    39    42    41    2
    40   124   123   ar
    41   124   122   ar
    42   114   115    1
    43    40    41    1
    44    40    43    1
    45    45    43    1
    46   123   121   ar
    47   122   120   ar
    48    44    43    1
    49   101   100    1
    50   101   102    1
    51   100    97    1
    52   121   119   ar
    53   120   119   ar
    54   115   116    1
    55   115   118    1
    56   119   118    1
    57   102    96    1
    58    97    98    1
    59    97    96    1
    60    99    98    2
    61   116   117    2
    62   116   125   am
    63   131   125    1
    64   131   130    1
    65   125   126    1
    66    96    90   am
    67   130   129    1
    68   148   146   ar
    69   145   146    1
    70   145   142    1
    71   126   129    1
    72   126   127    1
    73   146   147   ar
    74   143   144    2
    75   143   142    1
    76    90    91    2
    77    90    89    1
    78   142   141    1
    79   127   128    2
    80   127   132   am
    81    89    92    1
    82    89    88    1
    83    92    93    1
    84   141   134   am
    85    54    53    1
    86    46    47    1
    87    49    48    2
    88    94    93    2
    89   132   133    1
    90    84    83    2
    91    93    95   am
    92   139   138   ar
    93   134   133    1
    94   134   135    2
    95    78    76   ar
    96    78    79   ar
    97    88    83   am
    98    51    52    1
    99    51    50    1
   100    48    47    1
   101    48    55   am
   102    47    50    1
   103    83    82    1
   104    80    79    1
   105    76    74   ar
   106    53    52    1
   107   133   136    1
   108    79    77   ar
   109   138   140   ar
   110   138   137    1
   111   136   137    1
   112    74    73    1
   113    74    75   ar
   114    77    75   ar
   115    73    70    1
   116    55    56    1
   117    56    57    1
   118    82    85    1
   119    82    81    1
   120   112   111    1
   121    86    85    1
   122    85    87    1
   123    81    71   am
   124    67    65   ar
   125    67    68   ar
   126    65    64   ar
   127    71    70    1
   128    71    72    2
   129    70    69    1
   130   108   109    1
   131   108   107    1
   132    57    59   am
   133    57    58    2
   134   111   113    1
   135   111   110    2
   136    59    60    1
   137   109   110    1
   138    68    66   ar
   139   107   104    1
   140    64    63    1
   141    64    66   ar
   142    63    60    1
   143    60    61    1
   144   103   104    1
   145    62    61    2
   146   104   105    1
   147   106   105    2
