@<TRIPOS>MOLECULE
tmp/1vciA00.pdb
 77 76 0 0 0
SMALL
GASTEIGER

@<TRIPOS>ATOM
      1  N         27.0690   55.7610    6.9740 N.3    16  PHE16      -0.1241
      2  CA        26.1350   56.7720    7.4350 C.3    16  PHE16       0.1605
      3  C         26.6780   58.1140    6.9670 C.2    16  PHE16       0.2264
      4  O         27.5960   58.6700    7.5750 O.2    16  PHE16      -0.2867
      5  CB        26.0320   56.7570    8.9600 C.3    16  PHE16       0.0534
      6  CG        25.7680   55.3970    9.5340 C.ar   16  PHE16      -0.0203
      7  CD1       26.8190   54.5270    9.8050 C.ar   16  PHE16      -0.0042
      8  CD2       24.4680   54.9790    9.7900 C.ar   16  PHE16      -0.0042
      9  CE1       26.5770   53.2580   10.3240 C.ar   16  PHE16      -0.0003
     10  CE2       24.2150   53.7130   10.3090 C.ar   16  PHE16      -0.0003
     11  CZ        25.2700   52.8510   10.5770 C.ar   16  PHE16      -0.0000
     12  N         30.7060   58.8210    6.7330 N.3    19  PHE19      -0.1241
     13  CA        31.4110   57.7900    7.4800 C.3    19  PHE19       0.1605
     14  C         31.0790   56.3790    7.0150 C.2    19  PHE19       0.2264
     15  O         29.9110   55.9970    6.9280 O.2    19  PHE19      -0.2867
     16  CB        31.1010   57.9010    8.9720 C.3    19  PHE19       0.0534
     17  CG        31.8060   56.8740    9.8070 C.ar   19  PHE19      -0.0203
     18  CD1       33.1940   56.8660    9.8940 C.ar   19  PHE19      -0.0042
     19  CD2       31.0880   55.9020   10.4910 C.ar   19  PHE19      -0.0042
     20  CE1       33.8570   55.9060   10.6480 C.ar   19  PHE19      -0.0003
     21  CE2       31.7440   54.9370   11.2480 C.ar   19  PHE19      -0.0003
     22  CZ        33.1310   54.9400   11.3260 C.ar   19  PHE19      -0.0000
     23  N         30.9580   52.7010    7.8880 N.3    21  ALA21      -0.1245
     24  CA        30.9270   51.8000    9.0330 C.3    21  ALA21       0.1562
     25  C         31.4350   50.4060    8.6770 C.2    21  ALA21       0.2260
     26  O         32.0270   49.7260    9.5160 O.2    21  ALA21      -0.2867
     27  CB        29.5160   51.7150    9.5790 C.3    21  ALA21       0.0290
     28  N         37.3850   45.8490   18.3280 N.3    40  PRO40      -0.2102
     29  CA        37.1320   46.9390   19.2730 C.3    40  PRO40       0.1504
     30  C         35.8660   47.7100   18.9190 C.2    40  PRO40       0.2576
     31  O         35.2550   47.4680   17.8770 O.2    40  PRO40      -0.2718
     32  CB        38.3820   47.7940   19.1350 C.3    40  PRO40       0.0282
     33  CG        38.7140   47.6380   17.6840 C.3    40  PRO40       0.0208
     34  CD        38.5580   46.1520   17.4910 C.3    40  PRO40       0.0893
     35  N         35.4710   48.6350   19.7860 N.am   41  SER41      -0.1938
     36  CA        34.2830   49.4390   19.5310 C.3    41  SER41       0.2055
     37  C         34.5010   50.2680   18.2700 C.2    41  SER41       0.2644
     38  O         35.5960   50.7920   18.0360 O.2    41  SER41      -0.2714
     39  CB        34.0050   50.3660   20.7140 C.3    41  SER41       0.2130
     40  OG        33.8110   49.6210   21.9020 O.3    41  SER41      -0.2179
     41  N         33.4550   50.3740   17.4570 N.am   42  GLY42      -0.1939
     42  CA        33.5360   51.1350   16.2260 C.3    42  GLY42       0.2014
     43  C         34.1240   50.4000   15.0360 C.2    42  GLY42       0.2639
     44  O         34.2590   50.9830   13.9630 O.2    42  GLY42      -0.2714
     45  N         34.4600   49.1250   15.2000 N.am   43  CYS43      -0.1953
     46  CA        35.0560   48.3780   14.1000 C.3    43  CYS43       0.1843
     47  C         34.0720   47.9990   12.9990 C.2    43  CYS43       0.2626
     48  O         34.4790   47.7370   11.8720 O.2    43  CYS43      -0.2714
     49  CB        35.7630   47.1210   14.6220 C.3    43  CYS43       0.0997
     50  SG        34.6880   45.8040   15.2050 S.3    43  CYS43      -0.0797
     51  N         32.7820   47.9660   13.3180 N.am   44  GLY44      -0.1940
     52  CA        31.7910   47.6220   12.3120 C.3    44  GLY44       0.2014
     53  C         31.0620   46.3160   12.5760 C.2    44  GLY44       0.2639
     54  O         30.0810   45.9910   11.8970 O.2    44  GLY44      -0.2714
     55  N         31.5300   45.5750   13.5740 N.am   45  LYS45      -0.1963
     56  CA        30.9390   44.2900   13.9180 C.3    45  LYS45       0.1728
     57  C         29.4400   44.3240   14.1840 C.2    45  LYS45       0.2617
     58  O         28.7030   43.4860   13.6670 O.2    45  LYS45      -0.2715
     59  CB        31.6720   43.6740   15.1160 C.3    45  LYS45       0.0311
     60  CG        31.6040   44.4520   16.4220 C.3    45  LYS45       0.0038
     61  CD        32.5010   43.7810   17.4550 C.3    45  LYS45       0.0206
     62  CE        32.3180   44.3580   18.8440 C.3    45  LYS45       0.1093
     63  NZ        32.6960   45.7870   18.9270 N.3    45  LYS45      -0.1314
     64  N         28.9840   45.2830   14.9820 N.am   46  THR46      -0.1937
     65  CA        27.5610   45.3830   15.2870 C.3    46  THR46       0.2028
     66  C         26.7270   45.8080   14.0850 C.2    46  THR46       0.2642
     67  O         25.6210   45.3090   13.8870 O.2    46  THR46      -0.2714
     68  CB        27.3020   46.3640   16.4430 C.3    46  THR46       0.1808
     69  OG1       27.9680   45.8890   17.6150 O.3    46  THR46      -0.2208
     70  CG2       25.8150   46.4720   16.7430 C.3    46  THR46       0.0379
     71  N         27.2530   46.7280   13.2840 N.am   47  THR47      -0.1950
     72  CA        26.5260   47.1920   12.1080 C.3    47  THR47       0.1897
     73  C         26.3840   46.0590   11.1000 C.2    47  THR47       0.2313
     74  O         25.4340   46.0310   10.3240 O.2    47  THR47      -0.2863
     75  CB        27.2360   48.3740   11.4230 C.3    47  THR47       0.1794
     76  OG1       27.3850   49.4570   12.3530 O.3    47  THR47      -0.2208
     77  CG2       26.4230   48.8440   10.2260 C.3    47  THR47       0.0378
@<TRIPOS>BOND
     1    12    13    1
     2    15    14    2
     3     3     2    1
     4     3     4    2
     5     1     2    1
     6    14    13    1
     7     2     5    1
     8    13    16    1
     9    23    24    1
    10    25    24    1
    11    25    26    2
    12     5     6    1
    13    16    17    1
    14    24    27    1
    15     6     8   ar
    16     6     7   ar
    17     8    10   ar
    18     7     9   ar
    19    17    18   ar
    20    17    19   ar
    21    18    20   ar
    22    77    75    1
    23    10    11   ar
    24     9    11   ar
    25    74    73    2
    26    19    21   ar
    27    20    22   ar
    28    73    72    1
    29    21    22   ar
    30    75    72    1
    31    75    76    1
    32    48    47    2
    33    54    53    2
    34    72    71    1
    35    52    53    1
    36    52    51    1
    37    53    55   am
    38    47    51   am
    39    47    46    1
    40    71    66   am
    41    55    56    1
    42    58    57    2
    43    67    66    2
    44    56    57    1
    45    56    59    1
    46    44    43    2
    47    66    65    1
    48    46    49    1
    49    46    45    1
    50    57    64   am
    51    49    50    1
    52    64    65    1
    53    43    45   am
    54    43    42    1
    55    59    60    1
    56    65    68    1
    57    42    41    1
    58    60    61    1
    59    68    70    1
    60    68    69    1
    61    61    62    1
    62    41    37   am
    63    34    33    1
    64    34    28    1
    65    33    32    1
    66    31    30    2
    67    38    37    2
    68    37    36    1
    69    28    29    1
    70    62    63    1
    71    30    29    1
    72    30    35   am
    73    32    29    1
    74    36    35    1
    75    36    39    1
    76    39    40    1
