@<TRIPOS>MOLECULE
tmp/1vclA00.pdb
 89 83 0 0 0
SMALL
GASTEIGER

@<TRIPOS>ATOM
      1  N         -7.0150   45.9070   30.1330 N.3     2  LEU2       -0.1231
      2  CA        -6.3000   45.1200   29.1270 C.3     2  LEU2        0.1693
      3  C         -6.8360   45.5000   27.7540 C.2     2  LEU2        0.2592
      4  O         -7.9330   46.0340   27.6490 O.2     2  LEU2       -0.2718
      5  CB        -6.5190   43.6230   29.3670 C.3     2  LEU2        0.0284
      6  CG        -6.1080   43.0690   30.7340 C.3     2  LEU2        0.0019
      7  CD1       -6.4320   41.6040   30.8200 C.3     2  LEU2        0.0001
      8  CD2       -4.6190   43.3070   30.9850 C.3     2  LEU2        0.0001
      9  N         -6.0750   45.2500   26.6910 N.am    3  CYS3       -0.1970
     10  CA        -6.6320   45.4510   25.3480 C.3     3  CYS3        0.1712
     11  C         -7.5640   44.2960   25.0520 C.2     3  CYS3        0.2296
     12  O         -7.0960   43.1760   24.7820 O.2     3  CYS3       -0.2864
     13  CB        -5.5590   45.4920   24.2690 C.3     3  CYS3        0.0983
     14  SG        -6.3050   45.6820   22.6140 S.3     3  CYS3       -0.0798
     15  N         -8.2490   43.6050   20.3370 N.3     6  PRO6       -0.2116
     16  CA        -7.0440   43.7250   19.5150 C.3     6  PRO6        0.1372
     17  C         -7.3790   43.5620   18.0280 C.2     6  PRO6        0.2244
     18  O         -8.3360   42.8310   17.7070 O.2     6  PRO6       -0.2868
     19  CB        -6.1750   42.5780   20.0060 C.3     6  PRO6        0.0268
     20  CG        -7.1790   41.5520   20.4660 C.3     6  PRO6        0.0207
     21  CD        -8.2180   42.3980   21.1660 C.3     6  PRO6        0.0892
     22  N         -1.4410   41.3270   16.4180 N.3     9  ILE9       -0.1245
     23  CA        -0.3000   41.1190   17.3130 C.3     9  ILE9        0.1561
     24  C          0.8850   40.5780   16.5040 C.2     9  ILE9        0.2260
     25  O          0.7660   39.5540   15.7940 O.2     9  ILE9       -0.2867
     26  CB        -0.6470   40.0970   18.4220 C.3     9  ILE9        0.0252
     27  CG1       -1.9450   40.4770   19.1470 C.3     9  ILE9        0.0019
     28  CG2        0.5690   39.9240   19.3890 C.3     9  ILE9        0.0019
     29  CD1       -2.3620   39.4670   20.1290 C.3     9  ILE9        0.0001
     30  N          0.9800   44.9260   20.1530 N.3    46  ILE46      -0.1245
     31  CA        -0.4510   44.7410   20.1200 C.3    46  ILE46       0.1561
     32  C         -1.0960   45.9980   19.5550 C.2    46  ILE46       0.2260
     33  O         -1.0660   47.0550   20.1860 O.2    46  ILE46      -0.2867
     34  CB        -1.0280   44.4480   21.5100 C.3    46  ILE46       0.0252
     35  CG1       -0.3750   43.2150   22.1680 C.3    46  ILE46       0.0019
     36  CG2       -2.5450   44.2110   21.4100 C.3    46  ILE46       0.0019
     37  CD1       -0.6070   43.1730   23.6500 C.3    46  ILE46       0.0001
     38  N          3.3310   42.5790   24.4740 N.3    56  GLU56      -0.1245
     39  CA         3.0650   41.3610   25.2350 C.3    56  GLU56       0.1567
     40  C          3.9150   41.2200   26.4910 C.2    56  GLU56       0.2260
     41  O          3.6140   40.3780   27.3330 O.2    56  GLU56      -0.2867
     42  CB         3.2710   40.1170   24.3610 C.3    56  GLU56       0.0388
     43  CG         2.2560   39.9980   23.2450 C.3    56  GLU56       0.1160
     44  CD         0.8680   39.5930   23.7130 C.2    56  GLU56       0.3649
     45  OE1        0.6230   39.5540   24.9320 O.co2  56  GLU56      -0.2457
     46  OE2        0.0190   39.2780   22.8440 O.co2  56  GLU56      -0.2457
     47  N         -2.1750   35.0720   20.8170 N.3   351  ALA351     -0.1245
     48  CA        -2.9930   35.3530   22.0010 C.3   351  ALA351      0.1562
     49  C         -3.1510   34.0920   22.8510 C.2   351  ALA351      0.2260
     50  O         -3.1000   34.1670   24.0740 O.2   351  ALA351     -0.2867
     51  CB        -4.3390   35.9170   21.6230 C.3   351  ALA351      0.0290
     52  N         -0.0560   33.4520   24.7750 N.3   354  ASN354     -0.1225
     53  CA         0.0430   34.4640   25.8220 C.3   354  ASN354      0.1785
     54  C         -1.1580   34.4660   26.7930 C.2   354  ASN354      0.2597
     55  O         -1.3020   35.3910   27.6220 O.2   354  ASN354     -0.2718
     56  CB         0.2600   35.8470   25.1780 C.3   354  ASN354      0.1169
     57  CG         1.5080   35.8910   24.2720 C.2   354  ASN354      0.2627
     58  OD1        2.5590   35.3400   24.6230 O.2   354  ASN354     -0.2716
     59  ND2        1.4060   36.5660   23.1460 N.am  354  ASN354     -0.0877
     60  N         -1.9770   33.4020   26.7440 N.am  355  SER355     -0.1952
     61  CA        -3.1430   33.2320   27.6290 C.3   355  SER355      0.1924
     62  C         -3.0060   32.0220   28.5790 C.2   355  SER355      0.2314
     63  O         -4.0150   31.4910   29.0780 O.2   355  SER355     -0.2863
     64  CB        -4.4280   33.0740   26.8130 C.3   355  SER355      0.2116
     65  OG        -4.8450   34.2990   26.2080 O.3   355  SER355     -0.2180
     66  N        -10.8630   33.6460   25.6550 N.3   400  PRO400     -0.2102
     67  CA        -9.9530   34.7390   25.9980 C.3   400  PRO400      0.1504
     68  C        -10.7280   35.9850   26.3850 C.2   400  PRO400      0.2576
     69  O        -11.9550   36.0700   26.2020 O.2   400  PRO400     -0.2718
     70  CB        -9.1860   34.9870   24.7030 C.3   400  PRO400      0.0282
     71  CG       -10.0730   34.4900   23.6410 C.3   400  PRO400      0.0208
     72  CD       -10.8230   33.3390   24.2140 C.3   400  PRO400      0.0893
     73  N         -9.9900   36.9470   26.9070 N.am  401  GLN401     -0.1966
     74  CA       -10.5350   38.2500   27.2260 C.3   401  GLN401      0.1733
     75  C        -10.5000   39.1090   25.9780 C.2   401  GLN401      0.2616
     76  O         -9.8430   40.1490   25.9360 O.2   401  GLN401     -0.2715
     77  CB        -9.7400   38.8690   28.3800 C.3   401  GLN401      0.0408
     78  CG        -9.9730   38.1100   29.6770 C.3   401  GLN401      0.0908
     79  CD        -9.0500   38.5190   30.7810 C.2   401  GLN401      0.2608
     80  OE1       -7.8280   38.3830   30.6770 O.2   401  GLN401     -0.2717
     81  NE2       -9.6300   39.0100   31.8550 N.am  401  GLN401     -0.0878
     82  N        -11.2270   38.6440   24.9650 N.am  402  ILE402     -0.1977
     83  CA       -11.3890   39.3360   23.7070 C.3   402  ILE402      0.1596
     84  C        -12.8950   39.5250   23.5690 C.2   402  ILE402      0.2287
     85  O        -13.6670   38.5470   23.6360 O.2   402  ILE402     -0.2864
     86  CB       -10.8130   38.5060   22.5560 C.3   402  ILE402      0.0276
     87  CG1       -9.2750   38.4260   22.7040 C.3   402  ILE402      0.0022
     88  CG2      -11.2120   39.1340   21.2370 C.3   402  ILE402      0.0022
     89  CD1       -8.5750   37.4590   21.7550 C.3   402  ILE402      0.0001
@<TRIPOS>BOND
     1    25    24    2
     2    22    23    1
     3    24    23    1
     4    23    26    1
     5    18    17    2
     6    17    16    1
     7    26    27    1
     8    26    28    1
     9    27    29    1
    10    16    19    1
    11    16    15    1
    12    32    31    1
    13    32    33    2
    14    19    20    1
    15    31    30    1
    16    31    34    1
    17    15    21    1
    18    20    21    1
    19    47    48    1
    20    88    86    1
    21    36    34    1
    22    34    35    1
    23    51    48    1
    24    89    87    1
    25    48    49    1
    26    35    37    1
    27    86    87    1
    28    86    83    1
    29    14    13    1
    30    46    44   ar
    31    49    50    2
    32    59    57   am
    33    43    44    1
    34    43    42    1
    35    84    85    2
    36    84    83    1
    37    71    72    1
    38    71    70    1
    39    83    82    1
    40    44    45   ar
    41    72    66    1
    42    13    10    1
    43    57    58    2
    44    57    56    1
    45    42    39    1
    46    38    39    1
    47    70    67    1
    48    52    53    1
    49    12    11    2
    50    82    75   am
    51    11    10    1
    52    56    53    1
    53    39    40    1
    54    10     9    1
    55    66    67    1
    56    53    54    1
    57    76    75    2
    58    75    74    1
    59    67    68    1
    60    69    68    2
    61    65    64    1
    62    68    73   am
    63    40    41    2
    64     9     3   am
    65    60    54   am
    66    60    61    1
    67    54    55    2
    68    64    61    1
    69    73    74    1
    70    74    77    1
    71    61    62    1
    72     4     3    2
    73     3     2    1
    74    77    78    1
    75    62    63    2
    76     2     5    1
    77     2     1    1
    78     5     6    1
    79    78    79    1
    80    80    79    2
    81     6     7    1
    82     6     8    1
    83    79    81   am
