@<TRIPOS>MOLECULE
tmp/1vcoA00.pdb
 117 115 0 0 0
SMALL
GASTEIGER

@<TRIPOS>ATOM
      1  N          0.4430   25.4530   41.8030 N.3    55  TYR55      -0.1241
      2  CA         0.6050   26.5520   42.7640 C.3    55  TYR55       0.1605
      3  C         -0.3850   26.5980   43.9310 C.2    55  TYR55       0.2264
      4  O          0.0130   26.6160   45.0950 O.2    55  TYR55      -0.2867
      5  CB         0.5240   27.9050   42.0430 C.3    55  TYR55       0.0534
      6  CG         1.4730   28.0660   40.8770 C.ar   55  TYR55      -0.0201
      7  CD1        1.1370   27.6060   39.6030 C.ar   55  TYR55      -0.0009
      8  CD2        2.7120   28.6750   41.0530 C.ar   55  TYR55      -0.0009
      9  CE1        2.0220   27.7520   38.5290 C.ar   55  TYR55       0.0417
     10  CE2        3.5980   28.8240   39.9990 C.ar   55  TYR55       0.0417
     11  CZ         3.2540   28.3640   38.7410 C.ar   55  TYR55       0.1957
     12  OH         4.1540   28.5190   37.7140 O.3    55  TYR55      -0.2866
     13  N          4.3210   32.9330   37.7090 N.3   349  GLY349     -0.1210
     14  CA         3.6360   31.9460   36.8980 C.3   349  GLY349      0.1956
     15  C          2.2470   31.5330   37.3450 C.2   349  GLY349      0.2612
     16  O          1.7990   31.8500   38.4520 O.2   349  GLY349     -0.2717
     17  N          1.5650   30.8110   36.4600 N.am  350  GLY350     -0.1942
     18  CA         0.2280   30.3330   36.7420 C.3   350  GLY350      0.2014
     19  C         -0.4000   29.7150   35.5080 C.2   350  GLY350      0.2638
     20  O          0.1620   29.7930   34.4180 O.2   350  GLY350     -0.2714
     21  N         -1.5580   29.0870   35.6860 N.am  351  PHE351     -0.1973
     22  CA        -2.2960   28.4610   34.5910 C.3   351  PHE351      0.1639
     23  C         -3.7380   28.9520   34.6830 C.2   351  PHE351      0.2290
     24  O         -4.1950   29.3260   35.7630 O.2   351  PHE351     -0.2864
     25  CB        -2.2900   26.9260   34.7130 C.3   351  PHE351      0.0560
     26  CG        -0.9240   26.2950   34.5840 C.ar  351  PHE351     -0.0200
     27  CD1       -0.0480   26.2640   35.6690 C.ar  351  PHE351     -0.0042
     28  CD2       -0.5210   25.7210   33.3790 C.ar  351  PHE351     -0.0042
     29  CE1        1.2140   25.6680   35.5580 C.ar  351  PHE351     -0.0003
     30  CE2        0.7350   25.1250   33.2540 C.ar  351  PHE351     -0.0003
     31  CZ         1.6060   25.0970   34.3470 C.ar  351  PHE351     -0.0000
     32  N          7.9250   32.9790   33.5500 N.3   377  CYS377     -0.1221
     33  CA         7.0960   32.0800   32.7570 C.3   377  CYS377      0.1808
     34  C          5.8310   32.7930   32.2600 C.2   377  CYS377      0.2601
     35  O          5.8800   33.5020   31.2600 O.2   377  CYS377     -0.2717
     36  CB         6.7280   30.8370   33.5640 C.3   377  CYS377      0.0970
     37  SG         6.1090   29.5090   32.5160 S.3   377  CYS377     -0.0800
     38  N          4.7030   32.6130   32.9450 N.am  378  LEU378     -0.1979
     39  CA         3.4720   33.2930   32.5350 C.3   378  LEU378      0.1596
     40  C          3.7610   34.7940   32.5180 C.2   378  LEU378      0.2287
     41  O          3.1890   35.5440   31.7260 O.2   378  LEU378     -0.2864
     42  CB         2.3210   33.0020   33.5160 C.3   378  LEU378      0.0297
     43  CG         1.0170   33.8100   33.3290 C.3   378  LEU378      0.0022
     44  CD1        0.3860   33.5010   31.9660 C.3   378  LEU378      0.0001
     45  CD2        0.0310   33.4810   34.4480 C.3   378  LEU378      0.0001
     46  N          4.8980   35.6770   29.1350 N.3   381  GLN381     -0.1245
     47  CA         3.8140   35.5560   28.1860 C.3   381  GLN381      0.1566
     48  C          2.8710   36.7430   28.3160 C.2   381  GLN381      0.2260
     49  O          2.3250   37.2330   27.3260 O.2   381  GLN381     -0.2867
     50  CB         3.0840   34.2400   28.4180 C.3   381  GLN381      0.0367
     51  CG         3.9900   33.0540   28.2050 C.3   381  GLN381      0.0905
     52  CD         3.3650   31.7350   28.6020 C.2   381  GLN381      0.2608
     53  OE1        2.0940   31.7620   28.9600 O.2   381  GLN381     -0.2717
     54  NE2        4.0280   30.6990   28.5840 N.am  381  GLN381     -0.0878
     55  N         -4.1260   29.7350   25.2750 N.3   401  GLU401     -0.1245
     56  CA        -4.4610   29.0890   26.5460 C.3   401  GLU401      0.1567
     57  C         -5.6540   29.8140   27.1400 C.2   401  GLU401      0.2260
     58  O         -6.5140   29.2080   27.7710 O.2   401  GLU401     -0.2867
     59  CB        -3.2990   29.1840   27.5490 C.3   401  GLU401      0.0388
     60  CG        -3.4800   28.2940   28.7780 C.3   401  GLU401      0.1160
     61  CD        -2.4840   28.5800   29.9050 C.2   401  GLU401      0.3649
     62  OE1       -1.3990   29.1360   29.6380 O.co2 401  GLU401     -0.2457
     63  OE2       -2.7860   28.2280   31.0680 O.co2 401  GLU401     -0.2457
     64  N          8.6500   24.4850   33.1460 N.3   453  ARG453     -0.1231
     65  CA         7.3930   23.7920   33.4030 C.3   453  ARG453      0.1694
     66  C          6.2700   24.6250   32.7900 C.2   453  ARG453      0.2592
     67  O          5.6130   25.4050   33.4840 O.2   453  ARG453     -0.2718
     68  CB         7.0990   23.5960   34.8920 C.3   453  ARG453      0.0321
     69  CG         5.7880   22.8270   35.0850 C.3   453  ARG453      0.0489
     70  CD         5.3710   22.7380   36.5290 C.3   453  ARG453      0.2205
     71  NE         5.2760   24.0600   37.1320 N.pl3 453  ARG453     -0.0865
     72  CZ         5.2090   24.2710   38.4380 C.cat 453  ARG453      0.5346
     73  NH1        5.2210   23.2380   39.2710 N.pl3 453  ARG453      0.1354
     74  NH2        5.1490   25.5080   38.9100 N.pl3 453  ARG453      0.1354
     75  N          6.0690   24.4620   31.4870 N.am  454  HIS454     -0.1962
     76  CA         5.0300   25.1890   30.7610 C.3   454  HIS454      0.1787
     77  C          4.7670   24.5080   29.4200 C.2   454  HIS454      0.2620
     78  O          5.6300   23.8010   28.8990 O.2   454  HIS454     -0.2715
     79  CB         5.4550   26.6450   30.5220 C.3   454  HIS454      0.0785
     80  CG         6.6300   26.7960   29.6050 C.ar  454  HIS454      0.0821
     81  ND1        7.9320   26.6060   30.0210 N.ar  454  HIS454     -0.2267
     82  CD2        6.6970   27.0850   28.2850 C.ar  454  HIS454      0.1154
     83  CE1        8.7480   26.7700   28.9940 C.ar  454  HIS454      0.1986
     84  NE2        8.0240   27.0600   27.9290 N.ar  454  HIS454     -0.2212
     85  N          3.5750   24.7010   28.8650 N.am  455  ARG455     -0.1963
     86  CA         3.2650   24.0940   27.5750 C.3   455  ARG455      0.1729
     87  C          3.0110   25.1100   26.4620 C.2   455  ARG455      0.2616
     88  O          2.6460   24.7370   25.3500 O.2   455  ARG455     -0.2715
     89  CB         2.0670   23.1450   27.6940 C.3   455  ARG455      0.0348
     90  CG         0.7860   23.7600   28.2060 C.3   455  ARG455      0.0492
     91  CD        -0.3740   22.8070   27.9440 C.3   455  ARG455      0.2205
     92  NE        -0.1110   21.4680   28.4650 N.pl3 455  ARG455     -0.0865
     93  CZ        -0.2220   21.1250   29.7450 C.cat 455  ARG455      0.5346
     94  NH1       -0.6000   22.0250   30.6460 N.pl3 455  ARG455      0.1354
     95  NH2        0.0490   19.8820   30.1250 N.pl3 455  ARG455      0.1354
     96  N          3.2210   26.3890   26.7640 N.am  456  TYR456     -0.1974
     97  CA         3.0150   27.4590   25.7840 C.3   456  TYR456      0.1639
     98  C          4.3080   28.2130   25.4720 C.2   456  TYR456      0.2290
     99  O          5.1300   28.4560   26.3570 O.2   456  TYR456     -0.2864
    100  CB         1.9340   28.4180   26.2950 C.3   456  TYR456      0.0560
    101  CG         0.5580   27.8000   26.2210 C.ar  456  TYR456     -0.0198
    102  CD1       -0.1590   27.7970   25.0200 C.ar  456  TYR456     -0.0009
    103  CD2        0.0010   27.1450   27.3230 C.ar  456  TYR456     -0.0009
    104  CE1       -1.3930   27.1570   24.9160 C.ar  456  TYR456      0.0417
    105  CE2       -1.2340   26.4930   27.2280 C.ar  456  TYR456      0.0417
    106  CZ        -1.9210   26.5060   26.0200 C.ar  456  TYR456      0.1957
    107  OH        -3.1300   25.8630   25.9110 O.3   456  TYR456     -0.2866
    108  N         11.6340   29.0030   35.0920 N.3   505  HIS505     -0.1241
    109  CA        11.4350   29.3690   36.4880 C.3   505  HIS505      0.1621
    110  C         12.8340   29.5020   37.0900 C.2   505  HIS505      0.2264
    111  O         13.3730   28.5420   37.6440 O.2   505  HIS505     -0.2867
    112  CB        10.6890   28.2660   37.2390 C.3   505  HIS505      0.0745
    113  CG         9.2040   28.3190   37.0840 C.ar  505  HIS505      0.0817
    114  ND1        8.4300   29.2910   37.6800 N.ar  505  HIS505     -0.2268
    115  CD2        8.3480   27.5100   36.4150 C.ar  505  HIS505      0.1154
    116  CE1        7.1600   29.0780   37.3860 C.ar  505  HIS505      0.1986
    117  NE2        7.0830   28.0030   36.6200 N.ar  505  HIS505     -0.2212
@<TRIPOS>BOND
     1   104   102   ar
     2   104   106   ar
     3   102   101   ar
     4    55    56    1
     5    88    87    2
     6    98    97    1
     7    98    99    2
     8    97   100    1
     9    97    96    1
    10   107   106    1
    11   106   105   ar
    12   101   100    1
    13   101   103   ar
    14    87    96   am
    15    87    86    1
    16    56    57    1
    17    56    59    1
    18    57    58    2
    19   105   103   ar
    20    49    48    2
    21    59    60    1
    22    86    89    1
    23    86    85    1
    24    89    90    1
    25    84    82   ar
    26    84    83   ar
    27    91    90    1
    28    91    92    1
    29    47    48    1
    30    47    50    1
    31    47    46    1
    32    51    50    1
    33    51    52    1
    34    82    80   ar
    35    92    93    2
    36    54    52   am
    37    52    53    2
    38    60    61    1
    39    85    77   am
    40    78    77    2
    41    83    81   ar
    42    77    76    1
    43    80    81   ar
    44    80    79    1
    45    62    61   ar
    46    93    95    1
    47    93    94    1
    48    61    63   ar
    49    79    76    1
    50    76    75    1
    51    35    34    2
    52    75    66   am
    53    41    40    2
    54    44    43    1
    55    34    33    1
    56    34    38   am
    57    37    36    1
    58    40    39    1
    59    39    38    1
    60    39    42    1
    61    33    32    1
    62    33    36    1
    63    66    65    1
    64    66    67    2
    65    64    65    1
    66    30    28   ar
    67    30    31   ar
    68    43    42    1
    69    43    45    1
    70    28    26   ar
    71    65    68    1
    72    31    29   ar
    73    20    19    2
    74    26    25    1
    75    26    27   ar
    76    22    23    1
    77    22    25    1
    78    22    21    1
    79    23    24    2
    80    68    69    1
    81    69    70    1
    82   108   109    1
    83    19    21   am
    84    19    18    1
    85    29    27   ar
    86   115   117   ar
    87   115   113   ar
    88    17    18    1
    89    17    15   am
    90   109   110    1
    91   109   112    1
    92    70    71    1
    93   117   116   ar
    94    14    15    1
    95    14    13    1
    96   113   112    1
    97   113   114   ar
    98   110   111    2
    99    71    72    2
   100    15    16    2
   101   116   114   ar
   102    12    11    1
   103    72    74    1
   104    72    73    1
   105     9    11   ar
   106     9     7   ar
   107    11    10   ar
   108     7     6   ar
   109    10     8   ar
   110     6     8   ar
   111     6     5    1
   112     1     2    1
   113     5     2    1
   114     2     3    1
   115     3     4    2
