@<TRIPOS>MOLECULE
tmp/1vcuB00.pdb
 186 175 0 0 0
SMALL
GASTEIGER

@<TRIPOS>ATOM
      1  N         74.9600    8.1190   14.9460 N.3    21  ARG21      -0.1231
      2  CA        73.7250    8.4620   14.2550 C.3    21  ARG21       0.1694
      3  C         72.5530    7.9670   15.0610 C.2    21  ARG21       0.2591
      4  O         72.7310    7.2230   16.0190 O.2    21  ARG21      -0.2718
      5  CB        73.6450    7.7820   12.8850 C.3    21  ARG21       0.0321
      6  CG        74.6210    8.2480   11.8550 C.3    21  ARG21       0.0489
      7  CD        74.1970    7.7180   10.5140 C.3    21  ARG21       0.2205
      8  NE        72.9070    8.2790   10.1430 N.pl3  21  ARG21      -0.0865
      9  CZ        72.0470    7.7030    9.3100 C.cat  21  ARG21       0.5346
     10  NH1       70.8890    8.3000    9.0310 N.pl3  21  ARG21       0.1354
     11  NH2       72.3380    6.5250    8.7680 N.pl3  21  ARG21       0.1354
     12  N         71.3570    8.3750   14.6410 N.am   22  ILE22      -0.1980
     13  CA        70.1100    7.9480   15.2600 C.3    22  ILE22       0.1595
     14  C         70.0120    8.4060   16.7120 C.2    22  ILE22       0.2287
     15  O         69.9860    7.5960   17.6470 O.2    22  ILE22      -0.2864
     16  CB        69.9660    6.4030   15.1680 C.3    22  ILE22       0.0276
     17  CG1       70.3560    5.9240   13.7690 C.3    22  ILE22       0.0022
     18  CG2       68.5310    5.9860   15.4190 C.3    22  ILE22       0.0022
     19  CD1       69.6810    6.6850   12.6290 C.3    22  ILE22       0.0001
     20  N         78.3200    3.4320   15.8180 N.3    41  ARG41      -0.1245
     21  CA        78.5520    2.5610   14.6650 C.3    41  ARG41       0.1563
     22  C         80.0110    2.5580   14.1960 C.2    41  ARG41       0.2260
     23  O         80.7010    3.5710   14.2710 O.2    41  ARG41      -0.2867
     24  CB        77.6060    2.9770   13.5250 C.3    41  ARG41       0.0307
     25  CG        76.3540    3.6780   14.0530 C.3    41  ARG41       0.0489
     26  CD        75.0480    3.3710   13.3020 C.3    41  ARG41       0.2205
     27  NE        74.9630    3.9790   11.9740 N.pl3  41  ARG41      -0.0865
     28  CZ        73.8650    3.9870   11.2220 C.cat  41  ARG41       0.5346
     29  NH1       72.7380    3.4250   11.6560 N.pl3  41  ARG41       0.1354
     30  NH2       73.9000    4.5540   10.0230 N.pl3  41  ARG41       0.1354
     31  N         74.4500    1.7050    8.1390 N.3    46  ASP46      -0.1239
     32  CA        73.4990    1.0290    9.0120 C.3    46  ASP46       0.1674
     33  C         73.9000   -0.3330    9.5690 C.2    46  ASP46       0.2266
     34  O         73.7780   -0.5700   10.7730 O.2    46  ASP46      -0.2867
     35  CB        72.1760    0.8790    8.2760 C.3    46  ASP46       0.1410
     36  CG        71.5150    2.1960    8.0070 C.2    46  ASP46       0.3668
     37  OD1       72.2310    3.2120    7.9080 O.co2  46  ASP46      -0.2456
     38  OD2       70.2750    2.2080    7.8800 O.co2  46  ASP46      -0.2456
     39  N         70.3060   -1.0930   17.6600 N.3    85  MET85      -0.1230
     40  CA        70.0110    0.1530   16.9720 C.3    85  MET85       0.1702
     41  C         68.6000    0.6600   17.2490 C.2    85  MET85       0.2592
     42  O         67.7640   -0.0570   17.7990 O.2    85  MET85      -0.2718
     43  CB        70.3100    0.0510   15.4600 C.3    85  MET85       0.0401
     44  CG        69.5490   -0.9590   14.6340 C.3    85  MET85       0.0596
     45  SD        70.4460   -1.2880   13.0600 S.3    85  MET85      -0.1393
     46  CE        70.2650    0.2500   12.1790 C.3    85  MET85       0.0692
     47  N         68.3630    1.9230   16.9170 N.am   86  ASN86      -0.1974
     48  CA        67.0700    2.5650   17.1330 C.3    86  ASN86       0.1688
     49  C         66.7100    2.7750   18.6020 C.2    86  ASN86       0.2292
     50  O         65.7530    2.1960   19.1140 O.2    86  ASN86      -0.2864
     51  CB        65.9550    1.7860   16.4360 C.3    86  ASN86       0.1181
     52  CG        66.0440    1.8870   14.9450 C.2    86  ASN86       0.2629
     53  OD1       65.0320    2.4850   14.3330 O.2    86  ASN86      -0.2716
     54  ND2       67.0240    1.4460   14.3380 N.am   86  ASN86      -0.0877
     55  N         66.0740   -2.2050   18.8910 N.3   103  ILE103     -0.1245
     56  CA        65.9500   -3.4230   18.1170 C.3   103  ILE103      0.1561
     57  C         67.3350   -4.0300   17.9800 C.2   103  ILE103      0.2260
     58  O         68.3250   -3.3100   17.8330 O.2   103  ILE103     -0.2867
     59  CB        65.3620   -3.1630   16.6980 C.3   103  ILE103      0.0252
     60  CG1       66.3210   -2.3050   15.8710 C.3   103  ILE103      0.0019
     61  CG2       63.9890   -2.4930   16.8080 C.3   103  ILE103      0.0019
     62  CD1       65.8320   -2.0440   14.4680 C.3   103  ILE103      0.0001
     63  N         69.7470   -6.7670   15.8530 N.3   105  ILE105     -0.1245
     64  CA        69.8570   -7.4440   14.5590 C.3   105  ILE105      0.1561
     65  C         71.1330   -8.2850   14.4930 C.2   105  ILE105      0.2260
     66  O         72.2380   -7.7790   14.7200 O.2   105  ILE105     -0.2867
     67  CB        69.8180   -6.4360   13.3790 C.3   105  ILE105      0.0252
     68  CG1       68.4040   -5.8700   13.2480 C.3   105  ILE105      0.0019
     69  CG2       70.2460   -7.1180   12.0810 C.3   105  ILE105      0.0019
     70  CD1       68.2350   -4.8430   12.1470 C.3   105  ILE105      0.0001
     71  N         69.2080   -4.6050    6.3500 N.3   111  GLU111     -0.1245
     72  CA        67.7640   -4.4670    6.3580 C.3   111  GLU111      0.1567
     73  C         67.2720   -5.0360    5.0400 C.2   111  GLU111      0.2260
     74  O         66.2930   -5.7770    4.9970 O.2   111  GLU111     -0.2867
     75  CB        67.3630   -2.9980    6.4730 C.3   111  GLU111      0.0388
     76  CG        65.8650   -2.7580    6.3280 C.3   111  GLU111      0.1160
     77  CD        65.5000   -1.2830    6.2970 C.2   111  GLU111      0.3649
     78  OE1       66.1330   -0.5320    5.5280 O.co2 111  GLU111     -0.2457
     79  OE2       64.5750   -0.8730    7.0300 O.co2 111  GLU111     -0.2457
     80  N         60.6810   -7.2350    8.1610 N.3   156  THR156     -0.1203
     81  CA        61.5060   -6.6620    9.2190 C.3   156  THR156      0.1994
     82  C         60.6840   -5.5700    9.8940 C.2   156  THR156      0.2618
     83  O         59.5550   -5.2970    9.4850 O.2   156  THR156     -0.2717
     84  CB        62.8050   -6.0380    8.7000 C.3   156  THR156      0.1784
     85  OG1       63.5560   -5.5370    9.8170 O.3   156  THR156     -0.2211
     86  CG2       62.5080   -4.8930    7.7280 C.3   156  THR156      0.0376
     87  N         61.2490   -4.9420   10.9200 N.am  157  PHE157     -0.1961
     88  CA        60.5410   -3.8930   11.6440 C.3   157  PHE157      0.1771
     89  C         61.5200   -3.0650   12.4740 C.2   157  PHE157      0.2619
     90  O         62.6880   -3.4180   12.6020 O.2   157  PHE157     -0.2715
     91  CB        59.5010   -4.5360   12.5660 C.3   157  PHE157      0.0574
     92  CG        60.0870   -5.1330   13.8150 C.ar  157  PHE157     -0.0200
     93  CD1       60.0130   -4.4540   15.0290 C.ar  157  PHE157     -0.0042
     94  CD2       60.7460   -6.3460   13.7760 C.ar  157  PHE157     -0.0042
     95  CE1       60.5890   -4.9730   16.1890 C.ar  157  PHE157     -0.0003
     96  CE2       61.3270   -6.8730   14.9350 C.ar  157  PHE157     -0.0003
     97  CZ        61.2470   -6.1800   16.1420 C.ar  157  PHE157     -0.0000
     98  N         61.0390   -1.9610   13.0350 N.am  158  ALA158     -0.1977
     99  CA        61.8620   -1.1030   13.8810 C.3   158  ALA158      0.1597
    100  C         60.9800   -0.2070   14.7540 C.2   158  ALA158      0.2287
    101  O         59.8090    0.0240   14.4440 O.2   158  ALA158     -0.2864
    102  CB        62.7890   -0.2490   13.0250 C.3   158  ALA158      0.0319
    103  N         57.0380    0.8180   13.0520 N.3   179  TYR179     -0.1241
    104  CA        56.6080    0.5800   11.6790 C.3   179  TYR179      0.1605
    105  C         57.0640   -0.8220   11.2680 C.2   179  TYR179      0.2264
    106  O         58.1510   -1.2570   11.6450 O.2   179  TYR179     -0.2867
    107  CB        57.2080    1.6350   10.7420 C.3   179  TYR179      0.0534
    108  CG        58.6950    1.4760   10.4820 C.ar  179  TYR179     -0.0201
    109  CD1       59.1670    0.5820    9.5170 C.ar  179  TYR179     -0.0009
    110  CD2       59.6320    2.2130   11.2060 C.ar  179  TYR179     -0.0009
    111  CE1       60.5320    0.4320    9.2820 C.ar  179  TYR179      0.0417
    112  CE2       60.9930    2.0660   10.9790 C.ar  179  TYR179      0.0417
    113  CZ        61.4330    1.1790   10.0200 C.ar  179  TYR179      0.1957
    114  OH        62.7780    1.0380    9.7950 O.3   179  TYR179     -0.2866
    115  N         57.2930   -3.7460    7.9020 N.3   181  TYR181     -0.1241
    116  CA        57.1570   -4.0980    6.4870 C.3   181  TYR181      0.1605
    117  C         56.2160   -5.3010    6.3910 C.2   181  TYR181      0.2264
    118  O         56.5970   -6.4340    6.7090 O.2   181  TYR181     -0.2867
    119  CB        58.5290   -4.4410    5.9110 C.3   181  TYR181      0.0534
    120  CG        59.3310   -3.2300    5.4940 C.ar  181  TYR181     -0.0201
    121  CD1       59.2440   -2.7330    4.1970 C.ar  181  TYR181     -0.0009
    122  CD2       60.1780   -2.5780    6.3970 C.ar  181  TYR181     -0.0009
    123  CE1       59.9800   -1.6230    3.7990 C.ar  181  TYR181      0.0417
    124  CE2       60.9230   -1.4570    6.0100 C.ar  181  TYR181      0.0417
    125  CZ        60.8190   -0.9900    4.7070 C.ar  181  TYR181      0.1957
    126  OH        61.5690    0.0840    4.2890 O.3   181  TYR181     -0.2866
    127  N         56.8900    5.0120    7.2810 N.3   217  LEU217     -0.1231
    128  CA        58.0850    4.4920    7.9440 C.3   217  LEU217      0.1693
    129  C         58.2170    4.9400    9.3980 C.2   217  LEU217      0.2591
    130  O         57.2550    4.9060   10.1660 O.2   217  LEU217     -0.2718
    131  CB        59.3240    4.9130    7.1560 C.3   217  LEU217      0.0284
    132  CG        59.6800    4.1380    5.8820 C.3   217  LEU217      0.0019
    133  CD1       58.4450    3.7100    5.1370 C.3   217  LEU217      0.0001
    134  CD2       60.5510    5.0180    5.0010 C.3   217  LEU217      0.0001
    135  N         59.4200    5.3470    9.7710 N.am  218  GLU218     -0.1979
    136  CA        59.6880    5.7980   11.1210 C.3   218  GLU218      0.1602
    137  C         58.7080    6.9030   11.5020 C.2   218  GLU218      0.2287
    138  O         58.4390    7.8110   10.7090 O.2   218  GLU218     -0.2864
    139  CB        61.1200    6.3190   11.2110 C.3   218  GLU218      0.0415
    140  CG        62.1590    5.3010   10.7940 C.3   218  GLU218      0.1163
    141  CD        63.4760    5.9360   10.4100 C.2   218  GLU218      0.3649
    142  OE1       63.4560    7.0350    9.8140 O.co2 218  GLU218     -0.2457
    143  OE2       64.5280    5.3260   10.6850 O.co2 218  GLU218     -0.2457
    144  N         57.1690    9.2550    8.4430 N.3   237  ARG237     -0.1245
    145  CA        58.0340    9.4680    7.2930 C.3   237  ARG237      0.1563
    146  C         57.5030    8.6420    6.1240 C.2   237  ARG237      0.2260
    147  O         57.0990    7.4950    6.3110 O.2   237  ARG237     -0.2867
    148  CB        59.4530    9.0250    7.6410 C.3   237  ARG237      0.0307
    149  CG        60.3800    8.8460    6.4580 C.3   237  ARG237      0.0489
    150  CD        61.6730    8.1360    6.8590 C.3   237  ARG237      0.2205
    151  NE        62.5330    7.9290    5.7030 N.pl3 237  ARG237     -0.0865
    152  CZ        63.7450    7.3910    5.7490 C.cat 237  ARG237      0.5346
    153  NH1       64.2580    6.9910    6.9080 N.pl3 237  ARG237      0.1354
    154  NH2       64.4520    7.2610    4.6320 N.pl3 237  ARG237      0.1354
    155  N         63.2530    8.1560   -0.3520 N.3   270  GLN270     -0.1245
    156  CA        62.2230    7.7980    0.6180 C.3   270  GLN270      0.1566
    157  C         62.2270    8.5360    1.9520 C.2   270  GLN270      0.2260
    158  O         62.1960    7.9220    3.0190 O.2   270  GLN270     -0.2867
    159  CB        62.2340    6.2840    0.8570 C.3   270  GLN270      0.0367
    160  CG        63.5980    5.6920    1.1810 C.3   270  GLN270      0.0905
    161  CD        63.5170    4.2030    1.4630 C.2   270  GLN270      0.2608
    162  OE1       64.5170    3.5610    1.7920 O.2   270  GLN270     -0.2717
    163  NE2       62.3140    3.6450    1.3390 N.am  270  GLN270     -0.0878
    164  N         68.8610   16.0510    2.3590 N.3   300  ARG300     -0.1245
    165  CA        68.6590   16.2260    3.7920 C.3   300  ARG300      0.1563
    166  C         69.4790   17.4080    4.3110 C.2   300  ARG300      0.2260
    167  O         70.6640   17.2690    4.6330 O.2   300  ARG300     -0.2867
    168  CB        69.0540   14.9610    4.5320 C.3   300  ARG300      0.0307
    169  CG        68.1990   13.7880    4.1750 C.3   300  ARG300      0.0489
    170  CD        68.6750   12.5530    4.8860 C.3   300  ARG300      0.2205
    171  NE        67.7220   11.4680    4.7420 N.pl3 300  ARG300     -0.0865
    172  CZ        67.8590   10.2880    5.3270 C.cat 300  ARG300      0.5346
    173  NH1       66.9440    9.3370    5.1560 N.pl3 300  ARG300      0.1354
    174  NH2       68.9190   10.0690    6.0840 N.pl3 300  ARG300      0.1354
    175  N         68.2410   13.0190   10.8780 N.3   330  TYR330     -0.1241
    176  CA        67.4010   12.6530   11.9950 C.3   330  TYR330      0.1605
    177  C         67.4820   13.7020   13.0960 C.2   330  TYR330      0.2264
    178  O         68.4970   14.3850   13.2550 O.2   330  TYR330     -0.2867
    179  CB        67.8350   11.2900   12.5390 C.3   330  TYR330      0.0534
    180  CG        67.3500   10.0980   11.7380 C.ar  330  TYR330     -0.0201
    181  CD1       67.3910   10.0980   10.3380 C.ar  330  TYR330     -0.0009
    182  CD2       66.8710    8.9540   12.3830 C.ar  330  TYR330     -0.0009
    183  CE1       66.9650    8.9920    9.6050 C.ar  330  TYR330      0.0417
    184  CE2       66.4500    7.8410   11.6640 C.ar  330  TYR330      0.0417
    185  CZ        66.4960    7.8670   10.2780 C.ar  330  TYR330      0.1957
    186  OH        66.0540    6.7710    9.5690 O.3   330  TYR330     -0.2866
@<TRIPOS>BOND
     1   155   156    1
     2   156   159    1
     3   156   157    1
     4   159   160    1
     5   160   161    1
     6   163   161   am
     7   161   162    2
     8   157   158    2
     9   164   165    1
    10   165   166    1
    11   165   168    1
    12   123   121   ar
    13   123   125   ar
    14   169   168    1
    15   169   170    1
    16   121   120   ar
    17   126   125    1
    18   166   167    2
    19   154   152    1
    20   125   124   ar
    21   171   170    1
    22   171   172    2
    23    74    73    2
    24   134   132    1
    25    73    72    1
    26   133   132    1
    27   173   172    1
    28   172   174    1
    29   120   119    1
    30   120   122   ar
    31    78    77   ar
    32   151   152    2
    33   151   150    1
    34   152   153    1
    35   132   131    1
    36   119   116    1
    37   124   122   ar
    38   146   147    2
    39   146   145    1
    40    77    76    1
    41    77    79   ar
    42    76    75    1
    43    71    72    1
    44    72    75    1
    45   117   116    1
    46   117   118    2
    47   149   150    1
    48   149   148    1
    49   116   115    1
    50   131   128    1
    51   127   128    1
    52   145   148    1
    53   145   144    1
    54    86    84    1
    55    38    36   ar
    56    37    36   ar
    57   128   129    1
    58    36    35    1
    59    31    32    1
    60    80    81    1
    61    35    32    1
    62    84    81    1
    63    84    85    1
    64    11     9    1
    65    32    33    1
    66    10     9    1
    67    81    82    1
    68   111   109   ar
    69   111   113   ar
    70     9     8    2
    71   129   135   am
    72   129   130    2
    73    83    82    2
    74   109   108   ar
    75    33    34    2
    76   186   185    1
    77   183   185   ar
    78   183   181   ar
    79   135   136    1
    80   114   113    1
    81   142   141   ar
    82    82    87   am
    83   113   112   ar
    84    30    28    1
    85     8     7    1
    86   185   184   ar
    87   181   180   ar
    88   141   143   ar
    89   141   140    1
    90   108   107    1
    91   108   110   ar
    92     7     6    1
    93   138   137    2
    94   107   104    1
    95   140   139    1
    96   175   176    1
    97    87    88    1
    98   112   110   ar
    99   136   139    1
   100   136   137    1
   101    28    29    1
   102    28    27    2
   103   105   106    2
   104   105   104    1
   105    88    89    1
   106    88    91    1
   107   184   182   ar
   108   104   103    1
   109   180   182   ar
   110   180   179    1
   111     6     5    1
   112    27    26    1
   113   176   179    1
   114   176   177    1
   115    69    67    1
   116    70    68    1
   117    46    45    1
   118    89    90    2
   119    89    98   am
   120    91    92    1
   121    19    17    1
   122     5     2    1
   123   102    99    1
   124    98    99    1
   125    45    44    1
   126   177   178    2
   127    68    67    1
   128    26    25    1
   129    67    64    1
   130    24    25    1
   131    24    21    1
   132    17    16    1
   133    94    92   ar
   134    94    96   ar
   135    92    93   ar
   136    99   100    1
   137    22    23    2
   138    22    21    1
   139     2     1    1
   140     2     3    1
   141    53    52    2
   142    54    52   am
   143   101   100    2
   144    62    60    1
   145    65    64    1
   146    65    66    2
   147    64    63    1
   148    44    43    1
   149    12     3   am
   150    12    13    1
   151    21    20    1
   152    96    97   ar
   153    52    51    1
   154    93    95   ar
   155     3     4    2
   156    16    13    1
   157    16    18    1
   158    13    14    1
   159    43    40    1
   160    60    59    1
   161    97    95   ar
   162    51    48    1
   163    59    61    1
   164    59    56    1
   165    14    15    2
   166    47    48    1
   167    47    41   am
   168    40    41    1
   169    40    39    1
   170    48    49    1
   171    41    42    2
   172    58    57    2
   173    57    56    1
   174    56    55    1
   175    49    50    2
