@<TRIPOS>MOLECULE
tmp/1vcuB01.pdb
 108 106 0 0 0
SMALL
GASTEIGER

@<TRIPOS>ATOM
      1  N         75.4280   22.9570   20.6500 N.3    10  GLU10      -0.1231
      2  CA        76.6660   22.2530   20.9080 C.3    10  GLU10       0.1699
      3  C         76.6980   20.8400   20.3680 C.2    10  GLU10       0.2593
      4  O         75.7160   20.1040   20.4880 O.2    10  GLU10      -0.2718
      5  CB        76.9360   22.2330   22.4220 C.3    10  GLU10       0.0402
      6  CG        77.5110   20.9190   22.9300 C.3    10  GLU10       0.1161
      7  CD        78.5010   21.0960   24.0550 C.2    10  GLU10       0.3649
      8  OE1       78.0760   21.4270   25.1880 O.co2  10  GLU10      -0.2457
      9  OE2       79.7110   20.9000   23.7900 O.co2  10  GLU10      -0.2457
     10  N         77.8380   20.4720   19.7820 N.am   11  SER11      -0.1938
     11  CA        78.0420   19.1250   19.2480 C.3    11  SER11       0.2055
     12  C         78.3120   18.2060   20.4370 C.2    11  SER11       0.2643
     13  O         79.3300   18.3760   21.1140 O.2    11  SER11      -0.2714
     14  CB        79.2560   19.0880   18.3130 C.3    11  SER11       0.2130
     15  OG        79.0830   19.9360   17.1970 O.3    11  SER11      -0.2179
     16  N         77.4130   17.2510   20.6950 N.am   12  VAL12      -0.1963
     17  CA        77.5800   16.3220   21.8180 C.3    12  VAL12       0.1727
     18  C         78.1520   14.9770   21.3830 C.2    12  VAL12       0.2616
     19  O         78.5370   14.1500   22.2150 O.2    12  VAL12      -0.2715
     20  CB        76.2320   16.0620   22.5710 C.3    12  VAL12       0.0290
     21  CG1       75.7500   17.3390   23.2590 C.3    12  VAL12       0.0023
     22  CG2       75.1760   15.5410   21.6090 C.3    12  VAL12       0.0023
     23  N         78.2010   14.7700   20.0720 N.am   13  PHE13      -0.1960
     24  CA        78.7150   13.5380   19.4880 C.3    13  PHE13       0.1771
     25  C         79.4800   13.9000   18.2130 C.2    13  PHE13       0.2619
     26  O         79.0800   14.8000   17.4730 O.2    13  PHE13      -0.2715
     27  CB        77.5680   12.5820   19.1390 C.3    13  PHE13       0.0574
     28  CG        76.8340   12.0250   20.3310 C.ar   13  PHE13      -0.0200
     29  CD1       77.4620   11.1450   21.2120 C.ar   13  PHE13      -0.0042
     30  CD2       75.4910   12.3430   20.5490 C.ar   13  PHE13      -0.0042
     31  CE1       76.7590   10.5810   22.2970 C.ar   13  PHE13      -0.0003
     32  CE2       74.7800   11.7870   21.6320 C.ar   13  PHE13      -0.0003
     33  CZ        75.4180   10.9050   22.5030 C.ar   13  PHE13      -0.0000
     34  N         80.5760   13.1870   17.9630 N.am   14  GLN14      -0.1963
     35  CA        81.4120   13.4370   16.7920 C.3    14  GLN14       0.1733
     36  C         82.0760   12.1860   16.2710 C.2    14  GLN14       0.2617
     37  O         82.4950   11.3380   17.0460 O.2    14  GLN14      -0.2715
     38  CB        82.5540   14.3800   17.1280 C.3    14  GLN14       0.0408
     39  CG        82.2130   15.7810   17.4470 C.3    14  GLN14       0.0908
     40  CD        83.4350   16.4690   17.9450 C.2    14  GLN14       0.2608
     41  OE1       84.0040   16.0570   18.9540 O.2    14  GLN14      -0.2717
     42  NE2       83.8760   17.5030   17.2400 N.am   14  GLN14      -0.0878
     43  N         82.2150   12.1010   14.9550 N.am   15  SER15      -0.1936
     44  CA        82.8940   10.9680   14.3610 C.3    15  SER15       0.2055
     45  C         84.2790   10.9410   14.9900 C.2    15  SER15       0.2644
     46  O         84.8210   11.9820   15.3740 O.2    15  SER15      -0.2714
     47  CB        83.0340   11.1430   12.8470 C.3    15  SER15       0.2130
     48  OG        81.7880   10.9940   12.1960 O.3    15  SER15      -0.2179
     49  N         84.8380    9.7460   15.0950 N.am   16  GLY16      -0.1939
     50  CA        86.1570    9.5790   15.6660 C.3    16  GLY16       0.2014
     51  C         86.5260    8.1390   15.4110 C.2    16  GLY16       0.2639
     52  O         86.6410    7.7160   14.2580 O.2    16  GLY16      -0.2714
     53  N         86.7120    7.3790   16.4780 N.am   17  ALA17      -0.1963
     54  CA        87.0260    5.9680   16.3280 C.3    17  ALA17       0.1728
     55  C         85.7220    5.2750   15.9290 C.2    17  ALA17       0.2616
     56  O         85.7050    4.1060   15.5540 O.2    17  ALA17      -0.2715
     57  CB        87.5460    5.4020   17.6500 C.3    17  ALA17       0.0334
     58  N         84.6310    6.0260   16.0120 N.am   18  HIS18      -0.1973
     59  CA        83.3050    5.5170   15.6990 C.3    18  HIS18       0.1656
     60  C         82.5120    6.6130   15.0140 C.2    18  HIS18       0.2291
     61  O         82.9550    7.7560   14.9420 O.2    18  HIS18      -0.2864
     62  CB        82.5770    5.1320   16.9870 C.3    18  HIS18       0.0771
     63  CG        83.2170    4.0120   17.7420 C.ar   18  HIS18       0.0820
     64  ND1       83.0220    2.6870   17.4140 N.ar   18  HIS18      -0.2267
     65  CD2       84.0360    4.0170   18.8200 C.ar   18  HIS18       0.1154
     66  CE1       83.6890    1.9230   18.2610 C.ar   18  HIS18       0.1986
     67  NE2       84.3130    2.7050   19.1240 N.ar   18  HIS18      -0.2212
     68  N         78.4940    8.3000   14.8180 N.3    20  TYR20      -0.1241
     69  CA        77.2710    8.3370   15.5990 C.3    20  TYR20       0.1605
     70  C         76.0750    8.8310   14.8050 C.2    20  TYR20       0.2264
     71  O         76.1630    9.8240   14.0790 O.2    20  TYR20      -0.2867
     72  CB        77.4990    9.2070   16.8430 C.3    20  TYR20       0.0534
     73  CG        78.6600    8.7170   17.6740 C.ar   20  TYR20      -0.0201
     74  CD1       78.4580    7.9720   18.8350 C.ar   20  TYR20      -0.0009
     75  CD2       79.9720    8.9270   17.2470 C.ar   20  TYR20      -0.0009
     76  CE1       79.5440    7.4380   19.5480 C.ar   20  TYR20       0.0417
     77  CE2       81.0520    8.4030   17.9400 C.ar   20  TYR20       0.0417
     78  CZ        80.8380    7.6590   19.0820 C.ar   20  TYR20       0.1957
     79  OH        81.9300    7.1140   19.7190 O.3    20  TYR20      -0.2866
     80  N         76.3290    3.9290   18.3020 N.3    40  GLN40      -0.1245
     81  CA        77.7790    3.9470   18.1390 C.3    40  GLN40       0.1566
     82  C         78.0560    2.9370   17.0250 C.2    40  GLN40       0.2260
     83  O         78.0180    1.7310   17.2520 O.2    40  GLN40      -0.2867
     84  CB        78.4860    3.5260   19.4320 C.3    40  GLN40       0.0367
     85  CG        79.9810    3.8220   19.4110 C.3    40  GLN40       0.0905
     86  CD        80.7300    3.2380   20.5960 C.2    40  GLN40       0.2608
     87  OE1       80.8580    2.0190   20.7270 O.2    40  GLN40      -0.2717
     88  NE2       81.2320    4.1080   21.4660 N.am   40  GLN40      -0.0878
     89  N         74.5070   10.0740   26.9710 N.3    55  ARG55      -0.1245
     90  CA        75.1220   11.2460   27.5680 C.3    55  ARG55       0.1563
     91  C         74.0900   11.9220   28.4370 C.2    55  ARG55       0.2260
     92  O         72.9700   12.2060   27.9950 O.2    55  ARG55      -0.2867
     93  CB        75.6190   12.2240   26.5130 C.3    55  ARG55       0.0307
     94  CG        76.8460   11.7460   25.7960 C.3    55  ARG55       0.0489
     95  CD        77.5410   12.8890   25.1130 C.3    55  ARG55       0.2205
     96  NE        78.1060   13.8170   26.0800 N.pl3  55  ARG55      -0.0865
     97  CZ        78.7570   14.9260   25.7490 C.cat  55  ARG55       0.5346
     98  NH1       78.9250   15.2360   24.4680 N.pl3  55  ARG55       0.1354
     99  NH2       79.2220   15.7320   26.6990 N.pl3  55  ARG55       0.1354
    100  N         80.6500   10.7550   27.3120 N.3    71  GLN71      -0.1245
    101  CA        80.0930    9.6970   26.4930 C.3    71  GLN71       0.1566
    102  C         80.1900    8.3920   27.2650 C.2    71  GLN71       0.2260
    103  O         81.1930    8.1350   27.9300 O.2    71  GLN71      -0.2867
    104  CB        80.8930    9.6090   25.1950 C.3    71  GLN71       0.0367
    105  CG        80.5250    8.4560   24.3160 C.3    71  GLN71       0.0905
    106  CD        80.8420    8.7300   22.8810 C.2    71  GLN71       0.2608
    107  OE1       80.5390    9.8100   22.3640 O.2    71  GLN71      -0.2717
    108  NE2       81.4400    7.7570   22.2130 N.am   71  GLN71      -0.0878
@<TRIPOS>BOND
     1    48    47    1
     2    47    44    1
     3    71    70    2
     4    52    51    2
     5    44    43    1
     6    44    45    1
     7    70    69    1
     8    68    69    1
     9    61    60    2
    10    43    36   am
    11    45    49   am
    12    45    46    2
    13    60    59    1
    14    49    50    1
    15    51    50    1
    16    51    53   am
    17    56    55    2
    18    69    72    1
    19    59    58    1
    20    59    62    1
    21    55    58   am
    22    55    54    1
    23    36    35    1
    24    36    37    2
    25    54    53    1
    26    54    57    1
    27    35    38    1
    28    35    34    1
    29    72    73    1
    30    62    63    1
    31    82    83    2
    32    82    81    1
    33    38    39    1
    34    15    14    1
    35    42    40   am
    36    75    73   ar
    37    75    77   ar
    38    64    63   ar
    39    64    66   ar
    40    39    40    1
    41    26    25    2
    42    73    74   ar
    43    63    65   ar
    44    77    78   ar
    45    40    41    2
    46    34    25   am
    47    81    80    1
    48    81    84    1
    49    25    24    1
    50    66    67   ar
    51    14    11    1
    52    65    67   ar
    53    74    76   ar
    54    78    76   ar
    55    78    79    1
    56    27    24    1
    57    27    28    1
    58    11    10    1
    59    11    12    1
    60    85    84    1
    61    85    86    1
    62    24    23    1
    63    10     3   am
    64    23    18   am
    65    28    30   ar
    66    28    29   ar
    67     3     4    2
    68     3     2    1
    69    12    16   am
    70    12    13    2
    71    30    32   ar
    72    86    87    2
    73    86    88   am
    74     1     2    1
    75    16    17    1
    76     2     5    1
    77    29    31   ar
    78    18    17    1
    79    18    19    2
    80    22    20    1
    81    32    33   ar
    82    17    20    1
    83   108   106   am
    84    31    33   ar
    85   107   106    2
    86     5     6    1
    87    20    21    1
    88   106   105    1
    89     6     7    1
    90     9     7   ar
    91     7     8   ar
    92   105   104    1
    93    98    97    1
    94    95    94    1
    95    95    96    1
    96   104   101    1
    97    97    96    2
    98    97    99    1
    99    94    93    1
   100   101   102    1
   101   101   100    1
   102    93    90    1
   103    89    90    1
   104   102   103    2
   105    90    91    1
   106    92    91    2
