@<TRIPOS>MOLECULE
tmp/1vcuB02.pdb
 106 103 0 0 0
SMALL
GASTEIGER

@<TRIPOS>ATOM
      1  N         74.9600    8.1190   14.9460 N.3    21  ARG21      -0.1245
      2  CA        73.7250    8.4620   14.2550 C.3    21  ARG21       0.1563
      3  C         72.5530    7.9670   15.0610 C.2    21  ARG21       0.2260
      4  O         72.7310    7.2230   16.0190 O.2    21  ARG21      -0.2867
      5  CB        73.6450    7.7820   12.8850 C.3    21  ARG21       0.0307
      6  CG        74.6210    8.2480   11.8550 C.3    21  ARG21       0.0489
      7  CD        74.1970    7.7180   10.5140 C.3    21  ARG21       0.2205
      8  NE        72.9070    8.2790   10.1430 N.pl3  21  ARG21      -0.0865
      9  CZ        72.0470    7.7030    9.3100 C.cat  21  ARG21       0.5346
     10  NH1       70.8890    8.3000    9.0310 N.pl3  21  ARG21       0.1354
     11  NH2       72.3380    6.5250    8.7680 N.pl3  21  ARG21       0.1354
     12  N         79.4610    4.7990    8.9920 N.3    44  LYS44      -0.1231
     13  CA        78.2080    5.5230    8.8340 C.3    44  LYS44       0.1693
     14  C         77.1100    4.6030    8.3190 C.2    44  LYS44       0.2592
     15  O         75.9230    4.9400    8.3790 O.2    44  LYS44      -0.2718
     16  CB        78.3750    6.6780    7.8560 C.3    44  LYS44       0.0285
     17  CG        79.2540    7.7920    8.3430 C.3    44  LYS44       0.0035
     18  CD        79.3800    8.8530    7.2740 C.3    44  LYS44       0.0206
     19  CE        80.2160   10.0170    7.7440 C.3    44  LYS44       0.1093
     20  NZ        80.4330   10.9630    6.6170 N.3    44  LYS44      -0.1314
     21  N         77.5030    3.4350    7.8210 N.am   45  LYS45      -0.1966
     22  CA        76.5410    2.4940    7.2670 C.3    45  LYS45       0.1728
     23  C         75.7680    1.6970    8.3070 C.2    45  LYS45       0.2616
     24  O         76.3370    1.1150    9.2260 O.2    45  LYS45      -0.2715
     25  CB        77.2380    1.5720    6.2610 C.3    45  LYS45       0.0311
     26  CG        77.8210    2.3570    5.0930 C.3    45  LYS45       0.0038
     27  CD        78.2260    1.4840    3.9180 C.3    45  LYS45       0.0206
     28  CE        78.5040    2.3670    2.6880 C.3    45  LYS45       0.1093
     29  NZ        78.7360    1.6110    1.4210 N.3    45  LYS45      -0.1314
     30  N         74.4500    1.7050    8.1390 N.am   46  ASP46      -0.1971
     31  CA        73.4990    1.0290    9.0120 C.3    46  ASP46       0.1709
     32  C         73.9000   -0.3330    9.5690 C.2    46  ASP46       0.2293
     33  O         73.7780   -0.5700   10.7730 O.2    46  ASP46      -0.2864
     34  CB        72.1760    0.8790    8.2760 C.3    46  ASP46       0.1436
     35  CG        71.5150    2.1960    8.0070 C.2    46  ASP46       0.3671
     36  OD1       72.2310    3.2120    7.9080 O.co2  46  ASP46      -0.2456
     37  OD2       70.2750    2.2080    7.8800 O.co2  46  ASP46      -0.2456
     38  N         57.1690    9.2550    8.4430 N.3   237  ARG237     -0.1245
     39  CA        58.0340    9.4680    7.2930 C.3   237  ARG237      0.1563
     40  C         57.5030    8.6420    6.1240 C.2   237  ARG237      0.2260
     41  O         57.0990    7.4950    6.3110 O.2   237  ARG237     -0.2867
     42  CB        59.4530    9.0250    7.6410 C.3   237  ARG237      0.0307
     43  CG        60.3800    8.8460    6.4580 C.3   237  ARG237      0.0489
     44  CD        61.6730    8.1360    6.8590 C.3   237  ARG237      0.2205
     45  NE        62.5330    7.9290    5.7030 N.pl3 237  ARG237     -0.0865
     46  CZ        63.7450    7.3910    5.7490 C.cat 237  ARG237      0.5346
     47  NH1       64.2580    6.9910    6.9080 N.pl3 237  ARG237      0.1354
     48  NH2       64.4520    7.2610    4.6320 N.pl3 237  ARG237      0.1354
     49  N         63.6260   12.9680   -1.4970 N.3   268  PRO268     -0.2103
     50  CA        63.5920   11.6810   -2.2030 C.3   268  PRO268      0.1489
     51  C         64.9460   11.0080   -2.0390 C.2   268  PRO268      0.2418
     52  O         65.9370   11.6800   -1.7560 O.2   268  PRO268     -0.2734
     53  CB        63.3130   12.0920   -3.6470 C.3   268  PRO268      0.0282
     54  CG        64.0720   13.3800   -3.7600 C.3   268  PRO268      0.0208
     55  CD        63.7840   14.0890   -2.4430 C.3   268  PRO268      0.0893
     56  N         65.0240    9.6830   -2.2470 N.am  269  PRO269     -0.2718
     57  CA        63.9870    8.7190   -2.6310 C.3   269  PRO269      0.1535
     58  C         62.8930    8.3660   -1.6140 C.2   269  PRO269      0.2598
     59  O         61.7160    8.2760   -1.9790 O.2   269  PRO269     -0.2715
     60  CB        64.7990    7.4960   -3.0350 C.3   269  PRO269      0.0310
     61  CG        65.9650    7.5650   -2.1170 C.3   269  PRO269      0.0237
     62  CD        66.3400    9.0210   -2.1770 C.3   269  PRO269      0.0939
     63  N         63.2530    8.1560   -0.3520 N.am  270  GLN270     -0.1964
     64  CA        62.2230    7.7980    0.6180 C.3   270  GLN270      0.1733
     65  C         62.2270    8.5360    1.9520 C.2   270  GLN270      0.2616
     66  O         62.1960    7.9220    3.0190 O.2   270  GLN270     -0.2715
     67  CB        62.2340    6.2840    0.8570 C.3   270  GLN270      0.0408
     68  CG        63.5980    5.6920    1.1810 C.3   270  GLN270      0.0908
     69  CD        63.5170    4.2030    1.4630 C.2   270  GLN270      0.2608
     70  OE1       64.5170    3.5610    1.7920 O.2   270  GLN270     -0.2717
     71  NE2       62.3140    3.6450    1.3390 N.am  270  GLN270     -0.0878
     72  N         62.2600    9.8630    1.8670 N.am  271  GLY271     -0.1955
     73  CA        62.2210   10.7060    3.0470 C.3   271  GLY271      0.1869
     74  C         63.3340   10.6170    4.0650 C.2   271  GLY271      0.2309
     75  O         64.4250   10.1190    3.7890 O.2   271  GLY271     -0.2863
     76  N         68.8610   16.0510    2.3590 N.3   300  ARG300     -0.1245
     77  CA        68.6590   16.2260    3.7920 C.3   300  ARG300      0.1563
     78  C         69.4790   17.4080    4.3110 C.2   300  ARG300      0.2260
     79  O         70.6640   17.2690    4.6330 O.2   300  ARG300     -0.2867
     80  CB        69.0540   14.9610    4.5320 C.3   300  ARG300      0.0307
     81  CG        68.1990   13.7880    4.1750 C.3   300  ARG300      0.0489
     82  CD        68.6750   12.5530    4.8860 C.3   300  ARG300      0.2205
     83  NE        67.7220   11.4680    4.7420 N.pl3 300  ARG300     -0.0865
     84  CZ        67.8590   10.2880    5.3270 C.cat 300  ARG300      0.5346
     85  NH1       66.9440    9.3370    5.1560 N.pl3 300  ARG300      0.1354
     86  NH2       68.9190   10.0690    6.0840 N.pl3 300  ARG300      0.1354
     87  N         76.6970   15.5460    7.2640 N.3   354  ASP354     -0.1225
     88  CA        76.9570   14.2180    6.7270 C.3   354  ASP354      0.1805
     89  C         77.2120   13.1520    7.7940 C.2   354  ASP354      0.2597
     90  O         78.1020   12.3100    7.6540 O.2   354  ASP354     -0.2718
     91  CB        78.1300   14.2550    5.7450 C.3   354  ASP354      0.1424
     92  CG        78.1090   13.0830    4.7880 C.2   354  ASP354      0.3668
     93  OD1       79.2010   12.6210    4.3840 O.co2 354  ASP354     -0.2456
     94  OD2       76.9930   12.6290    4.4360 O.co2 354  ASP354     -0.2456
     95  N         76.4220   13.2050    8.8620 N.am  355  TYR355     -0.1976
     96  CA        76.5110   12.2320    9.9390 C.3   355  TYR355      0.1639
     97  C         77.8720   12.2130   10.5880 C.2   355  TYR355      0.2290
     98  O         78.3590   11.1580   10.9800 O.2   355  TYR355     -0.2864
     99  CB        76.1700   10.8510    9.3840 C.3   355  TYR355      0.0560
    100  CG        74.9520   10.8980    8.4920 C.ar  355  TYR355     -0.0198
    101  CD1       73.6730   11.1000    9.0260 C.ar  355  TYR355     -0.0009
    102  CD2       75.0800   10.8070    7.1080 C.ar  355  TYR355     -0.0009
    103  CE1       72.5560   11.2140    8.1990 C.ar  355  TYR355      0.0417
    104  CE2       73.9720   10.9150    6.2770 C.ar  355  TYR355      0.0417
    105  CZ        72.7150   11.1170    6.8240 C.ar  355  TYR355      0.1957
    106  OH        71.6260   11.2040    5.9860 O.3   355  TYR355     -0.2866
@<TRIPOS>BOND
     1    54    53    1
     2    54    55    1
     3    53    50    1
     4    60    57    1
     5    60    61    1
     6    57    56    1
     7    57    58    1
     8    55    49    1
     9    56    62    1
    10    56    51   am
    11    50    51    1
    12    50    49    1
    13    62    61    1
    14    51    52    2
    15    59    58    2
    16    58    63   am
    17    63    64    1
    18    64    67    1
    19    64    65    1
    20    67    68    1
    21    68    69    1
    22    71    69   am
    23    29    28    1
    24    69    70    2
    25    72    65   am
    26    72    73    1
    27    65    66    2
    28    76    77    1
    29    28    27    1
    30    73    74    1
    31    75    74    2
    32    77    78    1
    33    77    80    1
    34    27    26    1
    35    81    80    1
    36    81    82    1
    37    78    79    2
    38    93    92   ar
    39    94    92   ar
    40    48    46    1
    41    83    82    1
    42    83    84    2
    43    92    91    1
    44    26    25    1
    45    85    84    1
    46    84    86    1
    47    45    46    2
    48    45    44    1
    49    91    88    1
    50    46    47    1
    51   106   105    1
    52    40    41    2
    53    40    39    1
    54    25    22    1
    55   104   105   ar
    56   104   102   ar
    57    43    44    1
    58    43    42    1
    59    20    19    1
    60    88    87    1
    61    88    89    1
    62   105   103   ar
    63   102   100   ar
    64    22    21    1
    65    22    23    1
    66    18    19    1
    67    18    17    1
    68    39    42    1
    69    39    38    1
    70    90    89    2
    71    89    95   am
    72    21    14   am
    73    16    17    1
    74    16    13    1
    75    37    35   ar
    76    36    35   ar
    77    35    34    1
    78    30    23   am
    79    30    31    1
    80   103   101   ar
    81    34    31    1
    82    23    24    2
    83    14    15    2
    84    14    13    1
    85   100   101   ar
    86   100    99    1
    87    11     9    1
    88    13    12    1
    89    95    96    1
    90    31    32    1
    91    10     9    1
    92     9     8    2
    93    99    96    1
    94    32    33    2
    95    96    97    1
    96     8     7    1
    97     7     6    1
    98    97    98    2
    99     6     5    1
   100     5     2    1
   101     2     1    1
   102     2     3    1
   103     3     4    2
