@<TRIPOS>MOLECULE
tmp/1vczA01.pdb
 134 133 0 0 0
SMALL
GASTEIGER

@<TRIPOS>ATOM
      1  N        -37.5620   27.7040  -64.5600 N.3    12  GLN12      -0.1245
      2  CA       -37.2820   28.7150  -65.5750 C.3    12  GLN12       0.1566
      3  C        -38.2270   28.5310  -66.7620 C.2    12  GLN12       0.2260
      4  O        -38.7510   27.4330  -66.9870 O.2    12  GLN12      -0.2867
      5  CB       -35.8150   28.6160  -66.0560 C.3    12  GLN12       0.0367
      6  CG       -35.4510   27.3380  -66.8170 C.3    12  GLN12       0.0905
      7  CD       -34.0420   27.3790  -67.4360 C.2    12  GLN12       0.2608
      8  OE1      -33.5220   28.4530  -67.7730 O.2    12  GLN12      -0.2717
      9  NE2      -33.4350   26.2050  -67.6080 N.am   12  GLN12      -0.0878
     10  N        -35.0270   32.2830  -71.7300 N.3    17  TYR17      -0.1241
     11  CA       -33.5870   32.1180  -71.5960 C.3    17  TYR17       0.1605
     12  C        -33.0220   32.1960  -73.0150 C.2    17  TYR17       0.2264
     13  O        -31.8630   32.5380  -73.2140 O.2    17  TYR17      -0.2867
     14  CB       -33.2640   30.7400  -70.9950 C.3    17  TYR17       0.0534
     15  CG       -31.7860   30.4760  -70.7750 C.ar   17  TYR17      -0.0201
     16  CD1      -31.1980   30.7120  -69.5410 C.ar   17  TYR17      -0.0009
     17  CD2      -30.9800   30.0020  -71.8100 C.ar   17  TYR17      -0.0009
     18  CE1      -29.8380   30.4840  -69.3310 C.ar   17  TYR17       0.0417
     19  CE2      -29.6170   29.7700  -71.6160 C.ar   17  TYR17       0.0417
     20  CZ       -29.0570   30.0100  -70.3750 C.ar   17  TYR17       0.1957
     21  OH       -27.7230   29.7540  -70.1630 O.3    17  TYR17      -0.2866
     22  N        -34.7970   24.6220  -62.7150 N.3    39  HIS39      -0.1241
     23  CA       -33.4740   25.2250  -62.6890 C.3    39  HIS39       0.1621
     24  C        -32.7960   24.5660  -61.4800 C.2    39  HIS39       0.2264
     25  O        -31.7470   23.9060  -61.6230 O.2    39  HIS39      -0.2867
     26  CB       -33.5150   26.7450  -62.4950 C.3    39  HIS39       0.0745
     27  CG       -32.1490   27.3550  -62.3560 C.ar   39  HIS39       0.0817
     28  ND1      -31.9110   28.7050  -62.4740 N.ar   39  HIS39      -0.2268
     29  CD2      -30.9370   26.7820  -62.1270 C.ar   39  HIS39       0.1154
     30  CE1      -30.6190   28.9420  -62.3300 C.ar   39  HIS39       0.1986
     31  NE2      -30.0030   27.7920  -62.1190 N.ar   39  HIS39      -0.2212
     32  N        -32.7770   24.4710  -54.1050 N.3    42  TRP42      -0.1241
     33  CA       -31.7060   25.0420  -53.2900 C.3    42  TRP42       0.1605
     34  C        -31.8690   25.2180  -51.7900 C.2    42  TRP42       0.2264
     35  O        -32.6790   26.0250  -51.3410 O.2    42  TRP42      -0.2867
     36  CB       -31.3570   26.4320  -53.8310 C.3    42  TRP42       0.0550
     37  CG       -31.0510   26.5230  -55.2980 C.ar   42  TRP42       0.0003
     38  CD1      -30.5890   25.5310  -56.1110 C.ar   42  TRP42       0.0946
     39  CD2      -31.1140   27.7130  -56.1000 C.ar   42  TRP42       0.0152
     40  NE1      -30.3500   26.0420  -57.3810 N.ar   42  TRP42      -0.2442
     41  CE2      -30.6680   27.3740  -57.3910 C.ar   42  TRP42       0.0810
     42  CE3      -31.5050   29.0330  -55.8430 C.ar   42  TRP42       0.0012
     43  CZ2      -30.6040   28.3180  -58.4380 C.ar   42  TRP42       0.0191
     44  CZ3      -31.4430   29.9810  -56.8900 C.ar   42  TRP42       0.0001
     45  CH2      -30.9960   29.6050  -58.1660 C.ar   42  TRP42       0.0015
     46  N        -30.5810   21.5210  -69.9440 N.3    78  SER78      -0.1202
     47  CA       -29.6200   22.6150  -69.8380 C.3    78  SER78       0.2020
     48  C        -29.7530   23.3330  -71.1730 C.2    78  SER78       0.2619
     49  O        -29.7950   22.6790  -72.2170 O.2    78  SER78      -0.2717
     50  CB       -28.1920   22.1010  -69.6750 C.3    78  SER78       0.2103
     51  OG       -27.2750   23.1740  -69.8820 O.3    78  SER78      -0.2182
     52  N        -29.8460   24.6610  -71.1500 N.am   79  LEU79      -0.1965
     53  CA       -29.9850   25.4270  -72.3880 C.3    79  LEU79       0.1728
     54  C        -28.6970   26.1820  -72.7040 C.2    79  LEU79       0.2616
     55  O        -28.6460   26.9630  -73.6480 O.2    79  LEU79      -0.2715
     56  CB       -31.1470   26.4250  -72.2780 C.3    79  LEU79       0.0311
     57  CG       -32.5130   25.8560  -71.8900 C.3    79  LEU79       0.0022
     58  CD1      -33.4950   26.9980  -71.5910 C.3    79  LEU79       0.0001
     59  CD2      -33.0230   24.9720  -73.0020 C.3    79  LEU79       0.0001
     60  N        -27.6620   25.9650  -71.9050 N.am   80  ALA80      -0.1977
     61  CA       -26.3860   26.6360  -72.1440 C.3    80  ALA80       0.1597
     62  C        -25.6750   26.0220  -73.3400 C.2    80  ALA80       0.2287
     63  O        -26.0230   24.9340  -73.8100 O.2    80  ALA80      -0.2864
     64  CB       -25.4910   26.5460  -70.9110 C.3    80  ALA80       0.0319
     65  N        -25.0440   19.8000  -66.1250 N.3    89  PHE89      -0.1241
     66  CA       -25.9280   20.7080  -65.3920 C.3    89  PHE89       0.1605
     67  C        -26.4100   19.9740  -64.1320 C.2    89  PHE89       0.2264
     68  O        -26.3710   20.5340  -63.0470 O.2    89  PHE89      -0.2867
     69  CB       -27.1020   21.1190  -66.2930 C.3    89  PHE89       0.0534
     70  CG       -28.0410   22.1680  -65.6960 C.ar   89  PHE89      -0.0203
     71  CD1      -27.6040   23.0790  -64.7460 C.ar   89  PHE89      -0.0042
     72  CD2      -29.3670   22.2380  -66.1260 C.ar   89  PHE89      -0.0042
     73  CE1      -28.4840   24.0550  -64.2190 C.ar   89  PHE89      -0.0003
     74  CE2      -30.2550   23.1960  -65.6210 C.ar   89  PHE89      -0.0003
     75  CZ       -29.8150   24.1130  -64.6600 C.ar   89  PHE89      -0.0000
     76  N        -23.4990   19.5020  -61.5660 N.3    92  HIS92      -0.1226
     77  CA       -23.2050   20.7610  -60.9060 C.3    92  HIS92       0.1752
     78  C        -24.2640   21.0840  -59.8260 C.2    92  HIS92       0.2595
     79  O        -23.9090   21.4700  -58.7160 O.2    92  HIS92      -0.2718
     80  CB       -23.1420   21.8850  -61.9330 C.3    92  HIS92       0.0759
     81  CG       -23.0550   23.2490  -61.3170 C.ar   92  HIS92       0.0818
     82  ND1      -22.0340   23.6180  -60.4680 N.ar   92  HIS92      -0.2268
     83  CD2      -23.8690   24.3260  -61.4180 C.ar   92  HIS92       0.1154
     84  CE1      -22.2220   24.8650  -60.0710 C.ar   92  HIS92       0.1986
     85  NE2      -23.3290   25.3180  -60.6330 N.ar   92  HIS92      -0.2212
     86  N        -25.5470   20.9280  -60.1500 N.am   93  GLU93      -0.1979
     87  CA       -26.6170   21.1990  -59.1790 C.3    93  GLU93       0.1602
     88  C        -26.5260   20.2450  -57.9830 C.2    93  GLU93       0.2287
     89  O        -26.7220   20.6510  -56.8290 O.2    93  GLU93      -0.2864
     90  CB       -27.9790   21.0630  -59.8440 C.3    93  GLU93       0.0415
     91  CG       -28.2710   22.1710  -60.8150 C.3    93  GLU93       0.1163
     92  CD       -28.2690   23.5380  -60.1490 C.2    93  GLU93       0.3649
     93  OE1      -27.6660   24.4550  -60.7140 O.co2  93  GLU93      -0.2457
     94  OE2      -28.8790   23.7060  -59.0770 O.co2  93  GLU93      -0.2457
     95  N        -23.2370   21.3340  -55.8630 N.3    96  LYS96      -0.1231
     96  CA       -23.3870   22.6440  -55.2660 C.3    96  LYS96       0.1693
     97  C        -24.5140   22.7600  -54.2620 C.2    96  LYS96       0.2592
     98  O        -24.3240   23.3300  -53.1920 O.2    96  LYS96      -0.2718
     99  CB       -23.5960   23.7100  -56.3470 C.3    96  LYS96       0.0285
    100  CG       -23.6220   25.1260  -55.7840 C.3    96  LYS96       0.0035
    101  CD       -23.6860   26.1850  -56.8670 C.3    96  LYS96       0.0206
    102  CE       -23.6350   27.5660  -56.2200 C.3    96  LYS96       0.1093
    103  NZ       -23.7050   28.6690  -57.2100 N.3    96  LYS96      -0.1314
    104  N        -25.6670   22.1850  -54.6050 N.am   97  HIS97      -0.1976
    105  CA       -26.8490   22.2650  -53.7630 C.3    97  HIS97       0.1656
    106  C        -27.3390   20.9300  -53.1730 C.2    97  HIS97       0.2291
    107  O        -27.6750   20.8570  -51.9920 O.2    97  HIS97      -0.2864
    108  CB       -27.9870   22.8980  -54.5620 C.3    97  HIS97       0.0771
    109  CG       -27.6850   24.2810  -55.0710 C.ar   97  HIS97       0.0820
    110  ND1      -27.6350   25.3780  -54.2390 N.ar   97  HIS97      -0.2267
    111  CD2      -27.4750   24.7470  -56.3250 C.ar   97  HIS97       0.1154
    112  CE1      -27.4170   26.4650  -54.9590 C.ar   97  HIS97       0.1986
    113  NE2      -27.3180   26.1120  -56.2270 N.ar   97  HIS97      -0.2212
    114  N        -39.0950   35.1910  -66.3340 N.3   170  TYR170     -0.1227
    115  CA       -37.9370   34.3400  -66.5840 C.3   170  TYR170      0.1736
    116  C        -37.8420   33.1640  -65.6250 C.2   170  TYR170      0.2595
    117  O        -37.7300   32.0190  -66.0680 O.2   170  TYR170     -0.2718
    118  CB       -36.6750   35.1950  -66.5320 C.3   170  TYR170      0.0548
    119  CG       -35.3760   34.4220  -66.5270 C.ar  170  TYR170     -0.0200
    120  CD1      -35.1320   33.4170  -67.4620 C.ar  170  TYR170     -0.0009
    121  CD2      -34.3720   34.7260  -65.5950 C.ar  170  TYR170     -0.0009
    122  CE1      -33.9080   32.7280  -67.4710 C.ar  170  TYR170      0.0417
    123  CE2      -33.1610   34.0550  -65.5910 C.ar  170  TYR170      0.0417
    124  CZ       -32.9320   33.0530  -66.5330 C.ar  170  TYR170      0.1957
    125  OH       -31.7350   32.3660  -66.5390 O.3   170  TYR170     -0.2866
    126  N        -37.8570   33.4290  -64.3160 N.am  171  GLN171     -0.1979
    127  CA       -37.8240   32.3240  -63.3590 C.3   171  GLN171      0.1601
    128  C        -38.9120   32.4640  -62.2920 C.2   171  GLN171      0.2287
    129  O        -39.3530   33.5630  -61.9830 O.2   171  GLN171     -0.2864
    130  CB       -36.4380   32.2150  -62.7280 C.3   171  GLN171      0.0394
    131  CG       -35.4300   31.6940  -63.7490 C.3   171  GLN171      0.0908
    132  CD       -34.0740   31.3390  -63.1640 C.2   171  GLN171      0.2608
    133  OE1      -33.4680   30.3610  -63.5780 O.2   171  GLN171     -0.2717
    134  NE2      -33.5920   32.1260  -62.2210 N.am  171  GLN171     -0.0878
@<TRIPOS>BOND
     1    63    62    2
     2    55    54    2
     3    62    61    1
     4    13    12    2
     5    12    11    1
     6    59    57    1
     7    54    53    1
     8    54    60   am
     9    53    56    1
    10    53    52    1
    11    56    57    1
    12    49    48    2
    13    61    60    1
    14    61    64    1
    15    57    58    1
    16    17    19   ar
    17    17    15   ar
    18    10    11    1
    19    19    20   ar
    20    11    14    1
    21    48    52   am
    22    48    47    1
    23    14    15    1
    24    15    16   ar
    25    20    21    1
    26    20    18   ar
    27    46    47    1
    28    51    50    1
    29    47    50    1
    30    16    18   ar
    31     8     7    2
    32     9     7   am
    33   122   120   ar
    34   122   124   ar
    35   120   119   ar
    36     7     6    1
    37     4     3    2
    38     6     5    1
    39     3     2    1
    40   115   118    1
    41   115   114    1
    42   115   116    1
    43   125   124    1
    44   124   123   ar
    45   118   119    1
    46   119   121   ar
    47    69    70    1
    48    69    66    1
    49    72    70   ar
    50    72    74   ar
    51    65    66    1
    52   117   116    2
    53     5     2    1
    54    70    71   ar
    55   116   126   am
    56    74    75   ar
    57   121   123   ar
    58     2     1    1
    59    66    67    1
    60    71    73   ar
    61    75    73   ar
    62   126   127    1
    63    67    68    2
    64   131   132    1
    65   131   130    1
    66   133   132    2
    67   127   130    1
    68   127   128    1
    69   132   134   am
    70    22    23    1
    71    23    26    1
    72    23    24    1
    73    26    27    1
    74    28    27   ar
    75    28    30   ar
    76    27    29   ar
    77    30    31   ar
    78   128   129    2
    79    29    31   ar
    80    80    81    1
    81    80    77    1
    82    25    24    2
    83    76    77    1
    84    83    81   ar
    85    83    85   ar
    86    81    82   ar
    87    77    78    1
    88    91    92    1
    89    91    90    1
    90    93    92   ar
    91    85    84   ar
    92    82    84   ar
    93    86    78   am
    94    86    87    1
    95    92    94   ar
    96    90    87    1
    97    78    79    2
    98    87    88    1
    99    43    45   ar
   100    43    41   ar
   101    45    44   ar
   102    88    89    2
   103    41    40   ar
   104    41    39   ar
   105    40    38   ar
   106   103   102    1
   107    44    42   ar
   108   101   102    1
   109   101   100    1
   110    99   100    1
   111    99    96    1
   112   111   113   ar
   113   111   109   ar
   114   113   112   ar
   115    38    37   ar
   116    39    42   ar
   117    39    37   ar
   118    95    96    1
   119    37    36    1
   120    96    97    1
   121   109   108    1
   122   109   110   ar
   123   112   110   ar
   124   104    97   am
   125   104   105    1
   126   108   105    1
   127    97    98    2
   128    32    33    1
   129    36    33    1
   130   105   106    1
   131    33    34    1
   132   106   107    2
   133    34    35    2
