@<TRIPOS>MOLECULE
tmp/1vczA00.pdb
 126 128 0 0 0
SMALL
GASTEIGER

@<TRIPOS>ATOM
      1  N        -35.4590   26.8220  -51.8610 N.3     8  TYR8       -0.1241
      2  CA       -36.0770   27.6200  -52.8810 C.3     8  TYR8        0.1605
      3  C        -36.1860   26.5570  -53.9940 C.2     8  TYR8        0.2264
      4  O        -35.2150   25.8430  -54.2700 O.2     8  TYR8       -0.2867
      5  CB       -35.1470   28.6940  -53.4110 C.3     8  TYR8        0.0534
      6  CG       -35.2470   29.9900  -52.6730 C.ar    8  TYR8       -0.0201
      7  CD1      -34.0880   30.6800  -52.2970 C.ar    8  TYR8       -0.0009
      8  CD2      -36.4860   30.5560  -52.3790 C.ar    8  TYR8       -0.0009
      9  CE1      -34.1720   31.8890  -51.6500 C.ar    8  TYR8        0.0417
     10  CE2      -36.5700   31.7850  -51.7290 C.ar    8  TYR8        0.0417
     11  CZ       -35.4060   32.4360  -51.3760 C.ar    8  TYR8        0.1957
     12  OH       -35.4570   33.6700  -50.7820 O.3     8  TYR8       -0.2866
     13  N        -34.7970   24.6220  -62.7150 N.3    39  HIS39      -0.1241
     14  CA       -33.4740   25.2250  -62.6890 C.3    39  HIS39       0.1621
     15  C        -32.7960   24.5660  -61.4800 C.2    39  HIS39       0.2264
     16  O        -31.7470   23.9060  -61.6230 O.2    39  HIS39      -0.2867
     17  CB       -33.5150   26.7450  -62.4950 C.3    39  HIS39       0.0745
     18  CG       -32.1490   27.3550  -62.3560 C.ar   39  HIS39       0.0817
     19  ND1      -31.9110   28.7050  -62.4740 N.ar   39  HIS39      -0.2268
     20  CD2      -30.9370   26.7820  -62.1270 C.ar   39  HIS39       0.1154
     21  CE1      -30.6190   28.9420  -62.3300 C.ar   39  HIS39       0.1986
     22  NE2      -30.0030   27.7920  -62.1190 N.ar   39  HIS39      -0.2212
     23  N        -32.7770   24.4710  -54.1050 N.3    42  TRP42      -0.1228
     24  CA       -31.7060   25.0420  -53.2900 C.3    42  TRP42       0.1722
     25  C        -31.8690   25.2180  -51.7900 C.2    42  TRP42       0.2437
     26  O        -32.6790   26.0250  -51.3410 O.2    42  TRP42      -0.2733
     27  CB       -31.3570   26.4320  -53.8310 C.3    42  TRP42       0.0563
     28  CG       -31.0510   26.5230  -55.2980 C.ar   42  TRP42       0.0003
     29  CD1      -30.5890   25.5310  -56.1110 C.ar   42  TRP42       0.0946
     30  CD2      -31.1140   27.7130  -56.1000 C.ar   42  TRP42       0.0152
     31  NE1      -30.3500   26.0420  -57.3810 N.ar   42  TRP42      -0.2442
     32  CE2      -30.6680   27.3740  -57.3910 C.ar   42  TRP42       0.0810
     33  CE3      -31.5050   29.0330  -55.8430 C.ar   42  TRP42       0.0012
     34  CZ2      -30.6040   28.3180  -58.4380 C.ar   42  TRP42       0.0191
     35  CZ3      -31.4430   29.9810  -56.8900 C.ar   42  TRP42       0.0001
     36  CH2      -30.9960   29.6050  -58.1660 C.ar   42  TRP42       0.0015
     37  N        -31.0910   24.4810  -50.9930 N.am   43  PRO43      -0.2718
     38  CA       -31.1700   24.6190  -49.5420 C.3    43  PRO43       0.1535
     39  C        -30.8200   26.0730  -49.2420 C.2    43  PRO43       0.2598
     40  O        -29.9120   26.6320  -49.8690 O.2    43  PRO43      -0.2715
     41  CB       -30.1050   23.6520  -49.0550 C.3    43  PRO43       0.0310
     42  CG       -30.2400   22.5310  -50.0830 C.3    43  PRO43       0.0237
     43  CD       -30.3010   23.3000  -51.3700 C.3    43  PRO43       0.0939
     44  N        -31.5260   26.6760  -48.2870 N.am   44  ASN44      -0.1973
     45  CA       -31.3280   28.0970  -47.9700 C.3    44  ASN44       0.1688
     46  C        -31.5330   28.3760  -46.4750 C.2    44  ASN44       0.2292
     47  O        -32.1430   27.5770  -45.7700 O.2    44  ASN44      -0.2864
     48  CB       -32.3660   28.9180  -48.7630 C.3    44  ASN44       0.1181
     49  CG       -31.8140   30.2090  -49.3370 C.2    44  ASN44       0.2629
     50  OD1      -31.2180   30.2140  -50.4060 O.2    44  ASN44      -0.2716
     51  ND2      -32.0080   31.3250  -48.6180 N.am   44  ASN44      -0.0877
     52  N        -31.0180   34.6560  -45.5700 N.3    48  GLY48      -0.1225
     53  CA       -30.6520   35.0400  -46.9200 C.3    48  GLY48       0.1811
     54  C        -29.3830   34.4360  -47.4750 C.2    48  GLY48       0.2280
     55  O        -29.1240   34.5410  -48.6780 O.2    48  GLY48      -0.2866
     56  N        -26.8620   30.8890  -47.6890 N.3    50  TRP50      -0.1241
     57  CA       -27.1980   29.4920  -47.9570 C.3    50  TRP50       0.1605
     58  C        -25.9460   28.6400  -47.9660 C.2    50  TRP50       0.2264
     59  O        -24.8400   29.1530  -48.1720 O.2    50  TRP50      -0.2867
     60  CB       -27.8680   29.3690  -49.3470 C.3    50  TRP50       0.0550
     61  CG       -26.9740   29.8200  -50.5050 C.ar   50  TRP50       0.0003
     62  CD1      -25.9920   29.0990  -51.1320 C.ar   50  TRP50       0.0946
     63  CD2      -26.9230   31.1350  -51.0660 C.ar   50  TRP50       0.0152
     64  NE1      -25.3270   29.8980  -52.0470 N.ar   50  TRP50      -0.2442
     65  CE2      -25.8840   31.1500  -52.0200 C.ar   50  TRP50       0.0810
     66  CE3      -27.6620   32.3100  -50.8470 C.ar   50  TRP50       0.0012
     67  CZ2      -25.5580   32.3020  -52.7600 C.ar   50  TRP50       0.0191
     68  CZ3      -27.3410   33.4520  -51.5810 C.ar   50  TRP50       0.0001
     69  CH2      -26.2930   33.4340  -52.5290 C.ar   50  TRP50       0.0015
     70  N        -23.4990   19.5020  -61.5660 N.3    92  HIS92      -0.1226
     71  CA       -23.2050   20.7610  -60.9060 C.3    92  HIS92       0.1752
     72  C        -24.2640   21.0840  -59.8260 C.2    92  HIS92       0.2595
     73  O        -23.9090   21.4700  -58.7160 O.2    92  HIS92      -0.2718
     74  CB       -23.1420   21.8850  -61.9330 C.3    92  HIS92       0.0759
     75  CG       -23.0550   23.2490  -61.3170 C.ar   92  HIS92       0.0818
     76  ND1      -22.0340   23.6180  -60.4680 N.ar   92  HIS92      -0.2268
     77  CD2      -23.8690   24.3260  -61.4180 C.ar   92  HIS92       0.1154
     78  CE1      -22.2220   24.8650  -60.0710 C.ar   92  HIS92       0.1986
     79  NE2      -23.3290   25.3180  -60.6330 N.ar   92  HIS92      -0.2212
     80  N        -25.5470   20.9280  -60.1500 N.am   93  GLU93      -0.1979
     81  CA       -26.6170   21.1990  -59.1790 C.3    93  GLU93       0.1602
     82  C        -26.5260   20.2450  -57.9830 C.2    93  GLU93       0.2287
     83  O        -26.7220   20.6510  -56.8290 O.2    93  GLU93      -0.2864
     84  CB       -27.9790   21.0630  -59.8440 C.3    93  GLU93       0.0415
     85  CG       -28.2710   22.1710  -60.8150 C.3    93  GLU93       0.1163
     86  CD       -28.2690   23.5380  -60.1490 C.2    93  GLU93       0.3649
     87  OE1      -27.6660   24.4550  -60.7140 O.co2  93  GLU93      -0.2457
     88  OE2      -28.8790   23.7060  -59.0770 O.co2  93  GLU93      -0.2457
     89  N        -23.2370   21.3340  -55.8630 N.3    96  LYS96      -0.1231
     90  CA       -23.3870   22.6440  -55.2660 C.3    96  LYS96       0.1693
     91  C        -24.5140   22.7600  -54.2620 C.2    96  LYS96       0.2592
     92  O        -24.3240   23.3300  -53.1920 O.2    96  LYS96      -0.2718
     93  CB       -23.5960   23.7100  -56.3470 C.3    96  LYS96       0.0285
     94  CG       -23.6220   25.1260  -55.7840 C.3    96  LYS96       0.0035
     95  CD       -23.6860   26.1850  -56.8670 C.3    96  LYS96       0.0206
     96  CE       -23.6350   27.5660  -56.2200 C.3    96  LYS96       0.1093
     97  NZ       -23.7050   28.6690  -57.2100 N.3    96  LYS96      -0.1314
     98  N        -25.6670   22.1850  -54.6050 N.am   97  HIS97      -0.1976
     99  CA       -26.8490   22.2650  -53.7630 C.3    97  HIS97       0.1656
    100  C        -27.3390   20.9300  -53.1730 C.2    97  HIS97       0.2291
    101  O        -27.6750   20.8570  -51.9920 O.2    97  HIS97      -0.2864
    102  CB       -27.9870   22.8980  -54.5620 C.3    97  HIS97       0.0771
    103  CG       -27.6850   24.2810  -55.0710 C.ar   97  HIS97       0.0820
    104  ND1      -27.6350   25.3780  -54.2390 N.ar   97  HIS97      -0.2267
    105  CD2      -27.4750   24.7470  -56.3250 C.ar   97  HIS97       0.1154
    106  CE1      -27.4170   26.4650  -54.9590 C.ar   97  HIS97       0.1986
    107  NE2      -27.3180   26.1120  -56.2270 N.ar   97  HIS97      -0.2212
    108  N        -39.8840   31.3330  -58.3800 N.3   173  TYR173     -0.1241
    109  CA       -39.4130   30.7740  -57.1190 C.3   173  TYR173      0.1605
    110  C        -40.5800   30.4180  -56.2080 C.2   173  TYR173      0.2264
    111  O        -41.4900   31.2090  -56.0310 O.2   173  TYR173     -0.2867
    112  CB       -38.5440   31.7950  -56.3670 C.3   173  TYR173      0.0534
    113  CG       -37.2280   32.1080  -57.0300 C.ar  173  TYR173     -0.0201
    114  CD1      -37.1880   32.7460  -58.2590 C.ar  173  TYR173     -0.0009
    115  CD2      -36.0190   31.7930  -56.4100 C.ar  173  TYR173     -0.0009
    116  CE1      -35.9900   33.0680  -58.8640 C.ar  173  TYR173      0.0417
    117  CE2      -34.8060   32.1180  -57.0140 C.ar  173  TYR173      0.0417
    118  CZ       -34.8070   32.7540  -58.2420 C.ar  173  TYR173      0.1957
    119  OH       -33.6200   33.0850  -58.8810 O.3   173  TYR173     -0.2866
    120  N        -36.0200   36.5630  -52.8470 N.3   190  PRO190     -0.2116
    121  CA       -34.8040   37.2570  -53.3030 C.3   190  PRO190      0.1372
    122  C        -35.1800   38.7500  -53.3820 C.2   190  PRO190      0.2244
    123  O        -36.3690   39.0940  -53.3610 O.2   190  PRO190     -0.2868
    124  CB       -34.5620   36.6570  -54.6860 C.3   190  PRO190      0.0268
    125  CG       -35.0620   35.2320  -54.5140 C.3   190  PRO190      0.0207
    126  CD       -36.3690   35.4440  -53.7450 C.3   190  PRO190      0.0892
@<TRIPOS>BOND
     1    13    14    1
     2    14    17    1
     3    14    15    1
     4    17    18    1
     5    19    18   ar
     6    19    21   ar
     7    18    20   ar
     8    21    22   ar
     9    20    22   ar
    10    74    75    1
    11    74    71    1
    12    16    15    2
    13    70    71    1
    14    77    75   ar
    15    77    79   ar
    16    75    76   ar
    17    71    72    1
    18    85    86    1
    19    85    84    1
    20    87    86   ar
    21    79    78   ar
    22    76    78   ar
    23    80    72   am
    24    80    81    1
    25    86    88   ar
    26    84    81    1
    27    72    73    2
    28    81    82    1
    29   119   118    1
    30   116   114   ar
    31   116   118   ar
    32    34    36   ar
    33    34    32   ar
    34   108   109    1
    35   114   113   ar
    36   118   117   ar
    37    36    35   ar
    38    82    83    2
    39    32    31   ar
    40    32    30   ar
    41    31    29   ar
    42    97    96    1
    43   109   112    1
    44   109   110    1
    45   113   115   ar
    46   113   112    1
    47   117   115   ar
    48    35    33   ar
    49    95    96    1
    50    95    94    1
    51    93    94    1
    52    93    90    1
    53   105   107   ar
    54   105   103   ar
    55   107   106   ar
    56   110   111    2
    57    29    28   ar
    58    30    33   ar
    59    30    28   ar
    60    89    90    1
    61    28    27    1
    62    90    91    1
    63   103   102    1
    64   103   104   ar
    65   106   104   ar
    66   124   125    1
    67   124   121    1
    68    98    91   am
    69    98    99    1
    70   102    99    1
    71   125   126    1
    72     4     3    2
    73    91    92    2
    74    23    24    1
    75     3     2    1
    76    27    24    1
    77    99   100    1
    78   126   120    1
    79     5     2    1
    80     5     6    1
    81   122   123    2
    82   122   121    1
    83   121   120    1
    84    24    25    1
    85   100   101    2
    86     2     1    1
    87    67    69   ar
    88    67    65   ar
    89     6     8   ar
    90     6     7   ar
    91    69    68   ar
    92     8    10   ar
    93     7     9   ar
    94    64    65   ar
    95    64    62   ar
    96    65    63   ar
    97    25    26    2
    98    25    37   am
    99    10    11   ar
   100     9    11   ar
   101    68    66   ar
   102    11    12    1
   103    43    37    1
   104    43    42    1
   105    62    61   ar
   106    63    66   ar
   107    63    61   ar
   108    37    38    1
   109    61    60    1
   110    50    49    2
   111    42    41    1
   112    40    39    2
   113    38    39    1
   114    38    41    1
   115    60    57    1
   116    49    48    1
   117    49    51   am
   118    39    44   am
   119    48    45    1
   120    55    54    2
   121    44    45    1
   122    59    58    2
   123    45    46    1
   124    58    57    1
   125    57    56    1
   126    54    53    1
   127    53    52    1
   128    46    47    2
