@<TRIPOS>MOLECULE
tmp/1vd1A01.pdb
 133 130 0 0 0
SMALL
GASTEIGER

@<TRIPOS>ATOM
      1  N        -37.7270   27.8820  -64.3040 N.3    11  GLN11      -0.1245
      2  CA       -37.3550   28.8820  -65.2810 C.3    11  GLN11       0.1566
      3  C        -38.2180   28.7540  -66.5280 C.2    11  GLN11       0.2260
      4  O        -38.7990   27.7000  -66.7880 O.2    11  GLN11      -0.2867
      5  CB       -35.8800   28.6710  -65.6170 C.3    11  GLN11       0.0367
      6  CG       -35.2900   29.5410  -66.7070 C.3    11  GLN11       0.0905
      7  CD       -33.8180   29.2510  -66.8920 C.2    11  GLN11       0.2608
      8  OE1      -32.9970   29.5830  -66.0340 O.2    11  GLN11      -0.2717
      9  NE2      -33.4740   28.6040  -68.0030 N.am   11  GLN11      -0.0878
     10  N        -34.5780   32.5130  -71.3420 N.3    16  TYR16      -0.1241
     11  CA       -33.1470   32.3070  -71.1670 C.3    16  TYR16       0.1605
     12  C        -32.5390   32.3300  -72.5650 C.2    16  TYR16       0.2264
     13  O        -31.3510   32.5960  -72.7380 O.2    16  TYR16      -0.2867
     14  CB       -32.8620   30.9420  -70.5220 C.3    16  TYR16       0.0534
     15  CG       -31.3870   30.6470  -70.3390 C.ar   16  TYR16      -0.0201
     16  CD1      -30.6980   31.1000  -69.2150 C.ar   16  TYR16      -0.0009
     17  CD2      -30.6710   29.9400  -71.3100 C.ar   16  TYR16      -0.0009
     18  CE1      -29.3350   30.8570  -69.0560 C.ar   16  TYR16       0.0417
     19  CE2      -29.3060   29.6910  -71.1630 C.ar   16  TYR16       0.0417
     20  CZ       -28.6460   30.1510  -70.0330 C.ar   16  TYR16       0.1957
     21  OH       -27.3040   29.8930  -69.8640 O.3    16  TYR16      -0.2866
     22  N        -27.3040   36.4190  -74.0470 N.3    21  ARG21      -0.1245
     23  CA       -26.5300   35.2490  -73.6440 C.3    21  ARG21       0.1563
     24  C        -26.6640   34.2100  -74.7550 C.2    21  ARG21       0.2260
     25  O        -27.6230   34.2370  -75.5260 O.2    21  ARG21      -0.2867
     26  CB       -27.0850   34.6360  -72.3500 C.3    21  ARG21       0.0307
     27  CG       -27.4740   35.6170  -71.2540 C.3    21  ARG21       0.0489
     28  CD       -26.2770   36.3320  -70.6520 C.3    21  ARG21       0.2205
     29  NE       -26.6520   37.0800  -69.4520 N.pl3  21  ARG21      -0.0865
     30  CZ       -27.5660   38.0460  -69.4210 C.cat  21  ARG21       0.5346
     31  NH1      -28.2090   38.3930  -70.5290 N.pl3  21  ARG21       0.1354
     32  NH2      -27.8430   38.6640  -68.2780 N.pl3  21  ARG21       0.1354
     33  N        -39.2350   24.9010  -66.7730 N.3    36  SER36      -0.1202
     34  CA       -38.2630   23.8640  -66.4670 C.3    36  SER36       0.2020
     35  C        -37.6930   24.0790  -65.0700 C.2    36  SER36       0.2619
     36  O        -37.9460   25.0990  -64.4350 O.2    36  SER36      -0.2717
     37  CB       -37.1240   23.8950  -67.4860 C.3    36  SER36       0.2103
     38  OG       -36.4510   25.1450  -67.4470 O.3    36  SER36      -0.2182
     39  N        -36.9250   23.1090  -64.5950 N.am   37  ILE37      -0.1965
     40  CA       -36.3230   23.2140  -63.2800 C.3    37  ILE37       0.1727
     41  C        -34.9520   23.8700  -63.3740 C.2    37  ILE37       0.2616
     42  O        -34.1830   23.5920  -64.2950 O.2    37  ILE37      -0.2715
     43  CB       -36.1360   21.8110  -62.6480 C.3    37  ILE37       0.0290
     44  CG1      -37.4950   21.1140  -62.5180 C.3    37  ILE37       0.0022
     45  CG2      -35.4500   21.9260  -61.2830 C.3    37  ILE37       0.0023
     46  CD1      -37.3890   19.6220  -62.2610 C.3    37  ILE37       0.0001
     47  N        -34.6560   24.7800  -62.4520 N.am   38  HIS38      -0.1973
     48  CA       -33.3200   25.3460  -62.4210 C.3    38  HIS38       0.1656
     49  C        -32.6750   24.6520  -61.2260 C.2    38  HIS38       0.2291
     50  O        -31.6240   24.0210  -61.3530 O.2    38  HIS38      -0.2864
     51  CB       -33.3180   26.8610  -62.2140 C.3    38  HIS38       0.0771
     52  CG       -31.9400   27.4510  -62.1840 C.ar   38  HIS38       0.0820
     53  ND1      -31.7020   28.8030  -62.2910 N.ar   38  HIS38      -0.2267
     54  CD2      -30.7260   26.8670  -62.0340 C.ar   38  HIS38       0.1154
     55  CE1      -30.4040   29.0300  -62.2060 C.ar   38  HIS38       0.1986
     56  NE2      -29.7880   27.8720  -62.0490 N.ar   38  HIS38      -0.2212
     57  N        -33.4890   20.6510  -68.4360 N.3    76  PRO76      -0.2102
     58  CA       -32.4650   20.7910  -69.4710 C.3    76  PRO76       0.1504
     59  C        -31.4220   21.8660  -69.2000 C.2    76  PRO76       0.2576
     60  O        -31.6590   22.8080  -68.4430 O.2    76  PRO76      -0.2718
     61  CB       -33.2880   21.1280  -70.7080 C.3    76  PRO76       0.0282
     62  CG       -34.3560   22.0180  -70.1220 C.3    76  PRO76       0.0208
     63  CD       -34.7730   21.2140  -68.8990 C.3    76  PRO76       0.0893
     64  N        -30.2560   21.7020  -69.8170 N.am   77  SER77      -0.1938
     65  CA       -29.2020   22.7000  -69.7210 C.3    77  SER77       0.2055
     66  C        -29.3410   23.4510  -71.0350 C.2    77  SER77       0.2643
     67  O        -29.4310   22.8290  -72.0950 O.2    77  SER77      -0.2714
     68  CB       -27.8150   22.0610  -69.6580 C.3    77  SER77       0.2130
     69  OG       -26.8140   23.0660  -69.7410 O.3    77  SER77      -0.2179
     70  N        -29.3720   24.7740  -70.9740 N.am   78  LEU78      -0.1963
     71  CA       -29.5100   25.5750  -72.1830 C.3    78  LEU78       0.1728
     72  C        -28.2060   26.2880  -72.4960 C.2    78  LEU78       0.2616
     73  O        -28.1410   27.1080  -73.4130 O.2    78  LEU78      -0.2715
     74  CB       -30.6320   26.6010  -72.0060 C.3    78  LEU78       0.0311
     75  CG       -32.0240   26.0230  -71.7400 C.3    78  LEU78       0.0022
     76  CD1      -33.0220   27.1510  -71.5070 C.3    78  LEU78       0.0001
     77  CD2      -32.4500   25.1650  -72.9200 C.3    78  LEU78       0.0001
     78  N        -27.1680   25.9720  -71.7310 N.am   79  ALA79      -0.1977
     79  CA       -25.8690   26.5940  -71.9300 C.3    79  ALA79       0.1597
     80  C        -25.2060   26.0260  -73.1740 C.2    79  ALA79       0.2287
     81  O        -25.6230   24.9950  -73.7000 O.2    79  ALA79      -0.2864
     82  CB       -24.9840   26.3640  -70.7090 C.3    79  ALA79       0.0319
     83  N        -24.8250   20.0620  -65.7970 N.3    88  PHE88      -0.1241
     84  CA       -25.7250   20.9610  -65.0960 C.3    88  PHE88       0.1605
     85  C        -26.2710   20.2810  -63.8370 C.2    88  PHE88       0.2264
     86  O        -26.3080   20.8850  -62.7660 O.2    88  PHE88      -0.2867
     87  CB       -26.8590   21.3760  -66.0440 C.3    88  PHE88       0.0534
     88  CG       -27.7400   22.4740  -65.5090 C.ar   88  PHE88      -0.0203
     89  CD1      -27.2220   23.4700  -64.6880 C.ar   88  PHE88      -0.0042
     90  CD2      -29.0860   22.5270  -65.8580 C.ar   88  PHE88      -0.0042
     91  CE1      -28.0340   24.5030  -64.2220 C.ar   88  PHE88      -0.0003
     92  CE2      -29.9050   23.5560  -65.3990 C.ar   88  PHE88      -0.0003
     93  CZ       -29.3810   24.5450  -64.5790 C.ar   88  PHE88      -0.0000
     94  N        -23.5900   19.8520  -61.1950 N.3    91  HIS91      -0.1241
     95  CA       -23.3640   21.1490  -60.5610 C.3    91  HIS91       0.1621
     96  C        -24.4030   21.4400  -59.4770 C.2    91  HIS91       0.2264
     97  O        -24.0580   21.8380  -58.3670 O.2    91  HIS91      -0.2867
     98  CB       -23.4170   22.2620  -61.6160 C.3    91  HIS91       0.0745
     99  CG       -23.5190   23.6440  -61.0420 C.ar   91  HIS91       0.0817
    100  ND1      -22.4980   24.2340  -60.3290 N.ar   91  HIS91      -0.2268
    101  CD2      -24.5250   24.5510  -61.0760 C.ar   91  HIS91       0.1154
    102  CE1      -22.8690   25.4430  -59.9470 C.ar   91  HIS91       0.1986
    103  NE2      -24.0950   25.6600  -60.3880 N.ar   91  HIS91      -0.2212
    104  N        -39.0060   36.3700  -60.8740 N.3   157  GLU157     -0.1245
    105  CA       -37.7720   37.0300  -61.2680 C.3   157  GLU157      0.1567
    106  C        -37.9050   37.3530  -62.7490 C.2   157  GLU157      0.2260
    107  O        -38.2660   36.4870  -63.5450 O.2   157  GLU157     -0.2867
    108  CB       -36.5640   36.1080  -61.0480 C.3   157  GLU157      0.0388
    109  CG       -35.2370   36.7630  -61.4270 C.3   157  GLU157      0.1160
    110  CD       -34.0490   35.8340  -61.2840 C.2   157  GLU157      0.3649
    111  OE1      -34.2010   34.7510  -60.6870 O.co2 157  GLU157     -0.2457
    112  OE2      -32.9510   36.1940  -61.7700 O.co2 157  GLU157     -0.2457
    113  N        -38.8530   35.3910  -66.0870 N.3   169  TYR169     -0.1227
    114  CA       -37.6900   34.5330  -66.2850 C.3   169  TYR169      0.1736
    115  C        -37.6820   33.3410  -65.3430 C.2   169  TYR169      0.2595
    116  O        -37.5880   32.1960  -65.7860 O.2   169  TYR169     -0.2718
    117  CB       -36.4240   35.3730  -66.1140 C.3   169  TYR169      0.0548
    118  CG       -35.1310   34.5910  -66.1020 C.ar  169  TYR169     -0.0200
    119  CD1      -34.8490   33.6410  -67.0880 C.ar  169  TYR169     -0.0009
    120  CD2      -34.1770   34.8120  -65.1070 C.ar  169  TYR169     -0.0009
    121  CE1      -33.6450   32.9300  -67.0750 C.ar  169  TYR169      0.0417
    122  CE2      -32.9800   34.1110  -65.0870 C.ar  169  TYR169      0.0417
    123  CZ       -32.7190   33.1740  -66.0700 C.ar  169  TYR169      0.1957
    124  OH       -31.5290   32.4830  -66.0400 O.3   169  TYR169     -0.2866
    125  N        -37.7720   33.5980  -64.0420 N.am  170  GLN170     -0.1979
    126  CA       -37.8030   32.5040  -63.0790 C.3   170  GLN170      0.1601
    127  C        -38.9010   32.6530  -62.0340 C.2   170  GLN170      0.2287
    128  O        -39.3200   33.7650  -61.6990 O.2   170  GLN170     -0.2864
    129  CB       -36.4370   32.3410  -62.4080 C.3   170  GLN170      0.0394
    130  CG       -35.4050   31.8080  -63.3900 C.3   170  GLN170      0.0908
    131  CD       -34.1150   31.3850  -62.7320 C.2   170  GLN170      0.2608
    132  OE1      -33.5310   30.3670  -63.1040 O.2   170  GLN170     -0.2717
    133  NE2      -33.6560   32.1620  -61.7560 N.am  170  GLN170     -0.0878
@<TRIPOS>BOND
     1    25    24    2
     2    24    23    1
     3    22    23    1
     4    81    80    2
     5    23    26    1
     6    73    72    2
     7    80    79    1
     8    77    75    1
     9    13    12    2
    10    12    11    1
    11    72    71    1
    12    72    78   am
    13    26    27    1
    14    71    74    1
    15    71    70    1
    16    67    66    2
    17    74    75    1
    18    79    78    1
    19    79    82    1
    20    75    76    1
    21    10    11    1
    22    17    19   ar
    23    17    15   ar
    24    27    28    1
    25    11    14    1
    26    19    20   ar
    27    66    70   am
    28    66    65    1
    29    61    62    1
    30    61    58    1
    31    28    29    1
    32    31    30    1
    33    14    15    1
    34    15    16   ar
    35    62    63    1
    36    20    21    1
    37    20    18   ar
    38    64    65    1
    39    64    59   am
    40    69    68    1
    41    65    68    1
    42    58    59    1
    43    58    57    1
    44    29    30    2
    45    30    32    1
    46    16    18   ar
    47    59    60    2
    48    63    57    1
    49     9     7   am
    50    37    38    1
    51    37    34    1
    52   119   121   ar
    53   119   118   ar
    54   121   123   ar
    55     7     6    1
    56     7     8    2
    57     4     3    2
    58    33    34    1
    59     6     5    1
    60     3     2    1
    61    34    35    1
    62   114   117    1
    63   114   113    1
    64   114   115    1
    65   117   118    1
    66   118   120   ar
    67   123   124    1
    68   123   122   ar
    69    87    88    1
    70    87    84    1
    71    90    88   ar
    72    90    92   ar
    73    83    84    1
    74   116   115    2
    75     5     2    1
    76    88    89   ar
    77    92    93   ar
    78   115   125   am
    79     2     1    1
    80   120   122   ar
    81    84    85    1
    82    35    39   am
    83    35    36    2
    84    89    91   ar
    85    39    40    1
    86    93    91   ar
    87    42    41    2
    88   125   126    1
    89    85    86    2
    90   107   106    2
    91   130   131    1
    92   130   129    1
    93    41    40    1
    94    41    47   am
    95    40    43    1
    96   132   131    2
    97   126   129    1
    98   126   127    1
    99   106   105    1
   100   131   133   am
   101    43    44    1
   102    43    45    1
   103    44    46    1
   104    47    48    1
   105    48    51    1
   106    48    49    1
   107    53    55   ar
   108    53    52   ar
   109    51    52    1
   110    55    56   ar
   111    52    54   ar
   112    56    54   ar
   113   127   128    2
   114   112   110   ar
   115    98    99    1
   116    98    95    1
   117   109   110    1
   118   109   108    1
   119    50    49    2
   120   110   111   ar
   121   105   108    1
   122   105   104    1
   123    94    95    1
   124   101    99   ar
   125   101   103   ar
   126    99   100   ar
   127    95    96    1
   128   103   102   ar
   129   100   102   ar
   130    96    97    2
