@<TRIPOS>MOLECULE
tmp/1vd1A00.pdb
 141 144 0 0 0
SMALL
GASTEIGER

@<TRIPOS>ATOM
      1  N        -35.7130   26.8530  -51.7020 N.3     7  TYR7       -0.1241
      2  CA       -36.2850   27.7090  -52.7180 C.3     7  TYR7        0.1605
      3  C        -36.3660   26.6820  -53.8520 C.2     7  TYR7        0.2264
      4  O        -35.3710   26.0030  -54.1290 O.2     7  TYR7       -0.2867
      5  CB       -35.3190   28.8080  -53.1500 C.3     7  TYR7        0.0534
      6  CG       -35.4810   30.1010  -52.4070 C.ar    7  TYR7       -0.0201
      7  CD1      -34.3650   30.7780  -51.9160 C.ar    7  TYR7       -0.0009
      8  CD2      -36.7440   30.6570  -52.1990 C.ar    7  TYR7       -0.0009
      9  CE1      -34.5050   31.9770  -51.2280 C.ar    7  TYR7        0.0417
     10  CE2      -36.8940   31.8560  -51.5170 C.ar    7  TYR7        0.0417
     11  CZ       -35.7660   32.5060  -51.0340 C.ar    7  TYR7        0.1957
     12  OH       -35.8930   33.6840  -50.3450 O.3     7  TYR7       -0.2866
     13  N        -34.6560   24.7800  -62.4520 N.3    38  HIS38      -0.1241
     14  CA       -33.3200   25.3460  -62.4210 C.3    38  HIS38       0.1621
     15  C        -32.6750   24.6520  -61.2260 C.2    38  HIS38       0.2264
     16  O        -31.6240   24.0210  -61.3530 O.2    38  HIS38      -0.2867
     17  CB       -33.3180   26.8610  -62.2140 C.3    38  HIS38       0.0745
     18  CG       -31.9400   27.4510  -62.1840 C.ar   38  HIS38       0.0817
     19  ND1      -31.7020   28.8030  -62.2910 N.ar   38  HIS38      -0.2268
     20  CD2      -30.7260   26.8670  -62.0340 C.ar   38  HIS38       0.1154
     21  CE1      -30.4040   29.0300  -62.2060 C.ar   38  HIS38       0.1986
     22  NE2      -29.7880   27.8720  -62.0490 N.ar   38  HIS38      -0.2212
     23  N        -32.9160   24.6230  -53.8900 N.3    41  TRP41      -0.1228
     24  CA       -31.8800   25.1540  -53.0160 C.3    41  TRP41       0.1722
     25  C        -32.1190   25.3090  -51.5210 C.2    41  TRP41       0.2437
     26  O        -32.9830   26.0760  -51.1020 O.2    41  TRP41      -0.2733
     27  CB       -31.4390   26.5330  -53.5220 C.3    41  TRP41       0.0563
     28  CG       -31.1780   26.6460  -54.9950 C.ar   41  TRP41       0.0003
     29  CD1      -30.6890   25.6820  -55.8270 C.ar   41  TRP41       0.0946
     30  CD2      -31.3300   27.8280  -55.7940 C.ar   41  TRP41       0.0152
     31  NE1      -30.5180   26.1930  -57.0950 N.ar   41  TRP41      -0.2442
     32  CE2      -30.9070   27.5070  -57.1010 C.ar   41  TRP41       0.0810
     33  CE3      -31.7810   29.1270  -55.5280 C.ar   41  TRP41       0.0012
     34  CZ2      -30.9240   28.4390  -58.1430 C.ar   41  TRP41       0.0191
     35  CZ3      -31.7960   30.0590  -56.5680 C.ar   41  TRP41       0.0001
     36  CH2      -31.3720   29.7060  -57.8560 C.ar   41  TRP41       0.0015
     37  N        -31.3500   24.5810  -50.7000 N.am   42  PRO42      -0.2718
     38  CA       -31.4850   24.6870  -49.2440 C.3    42  PRO42       0.1535
     39  C        -31.1520   26.1540  -48.9480 C.2    42  PRO42       0.2598
     40  O        -30.2720   26.7300  -49.5900 O.2    42  PRO42      -0.2715
     41  CB       -30.4170   23.7260  -48.7430 C.3    42  PRO42       0.0310
     42  CG       -30.5060   22.6150  -49.7630 C.3    42  PRO42       0.0237
     43  CD       -30.5440   23.4030  -51.0660 C.3    42  PRO42       0.0939
     44  N        -31.8490   26.7540  -47.9920 N.am   43  ASN43      -0.1973
     45  CA       -31.6490   28.1660  -47.6920 C.3    43  ASN43       0.1688
     46  C        -31.8840   28.4490  -46.2060 C.2    43  ASN43       0.2292
     47  O        -32.5150   27.6520  -45.5020 O.2    43  ASN43      -0.2864
     48  CB       -32.6520   28.9810  -48.5270 C.3    43  ASN43       0.1181
     49  CG       -32.1250   30.3400  -48.9440 C.2    43  ASN43       0.2629
     50  OD1      -31.4700   30.4690  -49.9710 O.2    43  ASN43      -0.2716
     51  ND2      -32.4220   31.3690  -48.1460 N.am   43  ASN43      -0.0877
     52  N        -27.2270   30.9330  -47.4160 N.3    49  TRP49      -0.1241
     53  CA       -27.5260   29.5290  -47.6650 C.3    49  TRP49       0.1605
     54  C        -26.2870   28.6700  -47.6540 C.2    49  TRP49       0.2264
     55  O        -25.1750   29.1620  -47.8460 O.2    49  TRP49      -0.2867
     56  CB       -28.2060   29.3740  -49.0270 C.3    49  TRP49       0.0550
     57  CG       -27.3510   29.8430  -50.1670 C.ar   49  TRP49       0.0003
     58  CD1      -26.3940   29.1250  -50.8360 C.ar   49  TRP49       0.0946
     59  CD2      -27.3470   31.1520  -50.7480 C.ar   49  TRP49       0.0152
     60  NE1      -25.8000   29.9100  -51.7990 N.ar   49  TRP49      -0.2442
     61  CE2      -26.3660   31.1570  -51.7670 C.ar   49  TRP49       0.0810
     62  CE3      -28.0800   32.3230  -50.5080 C.ar   49  TRP49       0.0012
     63  CZ2      -26.0990   32.2890  -52.5460 C.ar   49  TRP49       0.0191
     64  CZ3      -27.8140   33.4520  -51.2870 C.ar   49  TRP49       0.0001
     65  CH2      -26.8320   33.4230  -52.2920 C.ar   49  TRP49       0.0015
     66  N        -23.5900   19.8520  -61.1950 N.3    91  HIS91      -0.1226
     67  CA       -23.3640   21.1490  -60.5610 C.3    91  HIS91       0.1752
     68  C        -24.4030   21.4400  -59.4770 C.2    91  HIS91       0.2595
     69  O        -24.0580   21.8380  -58.3670 O.2    91  HIS91      -0.2718
     70  CB       -23.4170   22.2620  -61.6160 C.3    91  HIS91       0.0759
     71  CG       -23.5190   23.6440  -61.0420 C.ar   91  HIS91       0.0818
     72  ND1      -22.4980   24.2340  -60.3290 N.ar   91  HIS91      -0.2268
     73  CD2      -24.5250   24.5510  -61.0760 C.ar   91  HIS91       0.1154
     74  CE1      -22.8690   25.4430  -59.9470 C.ar   91  HIS91       0.1986
     75  NE2      -24.0950   25.6600  -60.3880 N.ar   91  HIS91      -0.2212
     76  N        -25.6750   21.2580  -59.8090 N.am   92  GLU92      -0.1979
     77  CA       -26.7350   21.5210  -58.8440 C.3    92  GLU92       0.1602
     78  C        -26.6770   20.5230  -57.6970 C.2    92  GLU92       0.2287
     79  O        -26.9270   20.8760  -56.5450 O.2    92  GLU92      -0.2864
     80  CB       -28.1000   21.4760  -59.5360 C.3    92  GLU92       0.0415
     81  CG       -28.2860   22.6000  -60.5470 C.3    92  GLU92       0.1163
     82  CD       -28.3040   23.9780  -59.8970 C.2    92  GLU92       0.3649
     83  OE1      -27.9080   24.9600  -60.5640 O.co2  92  GLU92      -0.2457
     84  OE2      -28.7290   24.0870  -58.7260 O.co2  92  GLU92      -0.2457
     85  N        -23.3720   21.4870  -55.5580 N.3    95  LYS95      -0.1231
     86  CA       -23.5270   22.7790  -54.9130 C.3    95  LYS95       0.1693
     87  C        -24.6780   22.8720  -53.9290 C.2    95  LYS95       0.2592
     88  O        -24.5340   23.4440  -52.8430 O.2    95  LYS95      -0.2718
     89  CB       -23.7020   23.8690  -55.9680 C.3    95  LYS95       0.0285
     90  CG       -23.6940   25.2710  -55.3890 C.3    95  LYS95       0.0035
     91  CD       -23.7390   26.3020  -56.4970 C.3    95  LYS95       0.0206
     92  CE       -23.5940   27.7010  -55.9350 C.3    95  LYS95       0.1093
     93  NZ       -23.6830   28.7210  -57.0150 N.3    95  LYS95      -0.1314
     94  N        -25.8170   22.3050  -54.3080 N.am   96  HIS96      -0.1976
     95  CA       -27.0050   22.3930  -53.4760 C.3    96  HIS96       0.1656
     96  C        -27.5030   21.0710  -52.9140 C.2    96  HIS96       0.2291
     97  O        -27.7990   20.9790  -51.7280 O.2    96  HIS96      -0.2864
     98  CB       -28.1220   23.0670  -54.2780 C.3    96  HIS96       0.0771
     99  CG       -27.7710   24.4410  -54.7640 C.ar   96  HIS96       0.0820
    100  ND1      -27.6510   25.5210  -53.9180 N.ar   96  HIS96      -0.2267
    101  CD2      -27.5200   24.9090  -56.0100 C.ar   96  HIS96       0.1154
    102  CE1      -27.3470   26.5970  -54.6200 C.ar   96  HIS96       0.1986
    103  NE2      -27.2610   26.2530  -55.8920 N.ar   96  HIS96      -0.2212
    104  N        -37.7720   33.5980  -64.0420 N.3   170  GLN170     -0.1245
    105  CA       -37.8030   32.5040  -63.0790 C.3   170  GLN170      0.1566
    106  C        -38.9010   32.6530  -62.0340 C.2   170  GLN170      0.2260
    107  O        -39.3200   33.7650  -61.6990 O.2   170  GLN170     -0.2867
    108  CB       -36.4370   32.3410  -62.4080 C.3   170  GLN170      0.0367
    109  CG       -35.4050   31.8080  -63.3900 C.3   170  GLN170      0.0905
    110  CD       -34.1150   31.3850  -62.7320 C.2   170  GLN170      0.2608
    111  OE1      -33.5310   30.3670  -63.1040 O.2   170  GLN170     -0.2717
    112  NE2      -33.6560   32.1620  -61.7560 N.am  170  GLN170     -0.0878
    113  N        -40.0080   31.4630  -58.1590 N.3   172  TYR172     -0.1241
    114  CA       -39.5620   30.9130  -56.8910 C.3   172  TYR172      0.1605
    115  C        -40.7270   30.5210  -56.0040 C.2   172  TYR172      0.2264
    116  O        -41.6440   31.3090  -55.7850 O.2   172  TYR172     -0.2867
    117  CB       -38.7160   31.9310  -56.1110 C.3   172  TYR172      0.0534
    118  CG       -37.3780   32.2570  -56.7250 C.ar  172  TYR172     -0.0201
    119  CD1      -37.2950   32.9240  -57.9400 C.ar  172  TYR172     -0.0009
    120  CD2      -36.1940   31.9340  -56.0660 C.ar  172  TYR172     -0.0009
    121  CE1      -36.0680   33.2700  -58.4890 C.ar  172  TYR172      0.0417
    122  CE2      -34.9580   32.2730  -56.6070 C.ar  172  TYR172      0.0417
    123  CZ       -34.9040   32.9430  -57.8190 C.ar  172  TYR172      0.1957
    124  OH       -33.6850   33.3010  -58.3610 O.3   172  TYR172     -0.2866
    125  N        -36.3330   36.3420  -52.4590 N.3   189  PRO189     -0.2102
    126  CA       -35.0720   36.6650  -53.1250 C.3   189  PRO189      0.1504
    127  C        -34.6510   38.1240  -53.0820 C.2   189  PRO189      0.2575
    128  O        -35.4790   39.0370  -53.0970 O.2   189  PRO189     -0.2718
    129  CB       -35.3030   36.1610  -54.5430 C.3   189  PRO189      0.0282
    130  CG       -36.0970   34.9270  -54.2970 C.3   189  PRO189      0.0208
    131  CD       -37.1140   35.3910  -53.2720 C.3   189  PRO189      0.0893
    132  N        -33.3360   38.3160  -53.0390 N.am  190  HIS190     -0.1976
    133  CA       -32.7120   39.6320  -52.9750 C.3   190  HIS190      0.1656
    134  C        -33.1190   40.5590  -54.1230 C.2   190  HIS190      0.2291
    135  O        -33.9340   41.4680  -53.9450 O.2   190  HIS190     -0.2864
    136  CB       -31.1870   39.4700  -52.9760 C.3   190  HIS190      0.0771
    137  CG       -30.6840   38.4160  -52.0360 C.ar  190  HIS190      0.0820
    138  ND1      -29.3660   38.0100  -52.0120 N.ar  190  HIS190     -0.2267
    139  CD2      -31.3180   37.6850  -51.0870 C.ar  190  HIS190      0.1154
    140  CE1      -29.2100   37.0760  -51.0910 C.ar  190  HIS190      0.1986
    141  NE2      -30.3790   36.8600  -50.5150 N.ar  190  HIS190     -0.2212
@<TRIPOS>BOND
     1   104   105    1
     2   109   110    1
     3   109   108    1
     4   111   110    2
     5   105   108    1
     6   105   106    1
     7   110   112   am
     8    13    14    1
     9    14    17    1
    10    14    15    1
    11    19    21   ar
    12    19    18   ar
    13    17    18    1
    14    21    22   ar
    15    18    20   ar
    16    22    20   ar
    17   106   107    2
    18    70    71    1
    19    70    67    1
    20    16    15    2
    21    66    67    1
    22    73    71   ar
    23    73    75   ar
    24    71    72   ar
    25    83    82   ar
    26    67    68    1
    27    81    82    1
    28    81    80    1
    29    75    74   ar
    30    72    74   ar
    31    82    84   ar
    32    76    68   am
    33    76    77    1
    34    80    77    1
    35    68    69    2
    36    77    78    1
    37   121   119   ar
    38   121   123   ar
    39   124   123    1
    40   113   114    1
    41    34    36   ar
    42    34    32   ar
    43   119   118   ar
    44    36    35   ar
    45   123   122   ar
    46    78    79    2
    47    32    31   ar
    48    32    30   ar
    49    31    29   ar
    50    93    92    1
    51   114   117    1
    52   114   115    1
    53   118   117    1
    54   118   120   ar
    55   122   120   ar
    56    35    33   ar
    57    91    92    1
    58    91    90    1
    59   101   103   ar
    60   101    99   ar
    61   115   116    2
    62    89    90    1
    63    89    86    1
    64   103   102   ar
    65    29    28   ar
    66    30    33   ar
    67    30    28   ar
    68    85    86    1
    69    28    27    1
    70    86    87    1
    71    99    98    1
    72    99   100   ar
    73   102   100   ar
    74   129   130    1
    75   129   126    1
    76    94    87   am
    77    94    95    1
    78   130   131    1
    79    98    95    1
    80     4     3    2
    81   134   135    2
    82   134   133    1
    83    87    88    2
    84    23    24    1
    85     3     2    1
    86    27    24    1
    87    95    96    1
    88   131   125    1
    89     5     2    1
    90     5     6    1
    91   126   127    1
    92   126   125    1
    93   128   127    2
    94   127   132   am
    95   132   133    1
    96    24    25    1
    97   136   133    1
    98   136   137    1
    99    96    97    2
   100     2     1    1
   101    63    65   ar
   102    63    61   ar
   103     6     8   ar
   104     6     7   ar
   105    65    64   ar
   106     8    10   ar
   107   137   138   ar
   108   137   139   ar
   109   138   140   ar
   110     7     9   ar
   111    60    61   ar
   112    60    58   ar
   113    61    59   ar
   114    25    26    2
   115    25    37   am
   116    10    11   ar
   117    64    62   ar
   118     9    11   ar
   119   140   141   ar
   120   139   141   ar
   121    43    37    1
   122    43    42    1
   123    11    12    1
   124    58    57   ar
   125    59    62   ar
   126    59    57   ar
   127    37    38    1
   128    57    56    1
   129    50    49    2
   130    42    41    1
   131    40    39    2
   132    38    39    1
   133    38    41    1
   134    56    53    1
   135    39    44   am
   136    49    48    1
   137    49    51   am
   138    48    45    1
   139    44    45    1
   140    55    54    2
   141    45    46    1
   142    53    54    1
   143    53    52    1
   144    46    47    2
