@<TRIPOS>MOLECULE
tmp/1vd3A00.pdb
 133 132 0 0 0
SMALL
GASTEIGER

@<TRIPOS>ATOM
      1  N        -35.4780   26.3960  -51.7060 N.3     8  TYR8       -0.1241
      2  CA       -36.0460   27.2630  -52.7170 C.3     8  TYR8        0.1605
      3  C        -36.1640   26.2460  -53.8560 C.2     8  TYR8        0.2264
      4  O        -35.1740   25.5910  -54.1890 O.2     8  TYR8       -0.2867
      5  CB       -35.0600   28.3430  -53.1500 C.3     8  TYR8        0.0534
      6  CG       -35.2170   29.6600  -52.4410 C.ar    8  TYR8       -0.0201
      7  CD1      -34.0980   30.3890  -52.0370 C.ar    8  TYR8       -0.0009
      8  CD2      -36.4810   30.1990  -52.2030 C.ar    8  TYR8       -0.0009
      9  CE1      -34.2370   31.6220  -51.4160 C.ar    8  TYR8        0.0417
     10  CE2      -36.6280   31.4340  -51.5810 C.ar    8  TYR8        0.0417
     11  CZ       -35.5000   32.1370  -51.1920 C.ar    8  TYR8        0.1957
     12  OH       -35.6390   33.3630  -50.5780 O.3     8  TYR8       -0.2866
     13  N        -34.7220   24.2910  -62.4920 N.3    39  HIS39      -0.1241
     14  CA       -33.3920   24.8980  -62.4920 C.3    39  HIS39       0.1621
     15  C        -32.6920   24.1710  -61.3490 C.2    39  HIS39       0.2264
     16  O        -31.6050   23.6220  -61.5230 O.2    39  HIS39      -0.2867
     17  CB       -33.4290   26.4120  -62.2080 C.3    39  HIS39       0.0745
     18  CG       -32.0700   27.0250  -62.0160 C.ar   39  HIS39       0.0817
     19  ND1      -31.8180   28.3630  -62.2380 N.ar   39  HIS39      -0.2268
     20  CD2      -30.8930   26.4870  -61.6110 C.ar   39  HIS39       0.1154
     21  CE1      -30.5470   28.6210  -61.9800 C.ar   39  HIS39       0.1986
     22  NE2      -29.9640   27.4990  -61.5970 N.ar   39  HIS39      -0.2212
     23  N        -32.7670   24.1780  -53.9450 N.3    42  TRP42      -0.1241
     24  CA       -31.7120   24.7330  -53.1040 C.3    42  TRP42       0.1605
     25  C        -31.9230   24.8710  -51.6010 C.2    42  TRP42       0.2264
     26  O        -32.8320   25.5660  -51.1580 O.2    42  TRP42      -0.2867
     27  CB       -31.3170   26.1310  -53.5970 C.3    42  TRP42       0.0550
     28  CG       -31.1110   26.3180  -55.0680 C.ar   42  TRP42       0.0003
     29  CD1      -30.6570   25.3990  -55.9730 C.ar   42  TRP42       0.0946
     30  CD2      -31.2530   27.5500  -55.7870 C.ar   42  TRP42       0.0152
     31  NE1      -30.5000   25.9890  -57.2120 N.ar   42  TRP42      -0.2442
     32  CE2      -30.8610   27.3080  -57.1220 C.ar   42  TRP42       0.0810
     33  CE3      -31.6720   28.8390  -55.4270 C.ar   42  TRP42       0.0012
     34  CZ2      -30.8780   28.3090  -58.1010 C.ar   42  TRP42       0.0191
     35  CZ3      -31.6870   29.8380  -56.4050 C.ar   42  TRP42       0.0001
     36  CH2      -31.2930   29.5640  -57.7210 C.ar   42  TRP42       0.0015
     37  N        -31.6030   26.4290  -48.1660 N.3    44  ASN44      -0.1240
     38  CA       -31.3560   27.8380  -47.8410 C.3    44  ASN44       0.1653
     39  C        -31.5440   28.1340  -46.3510 C.2    44  ASN44       0.2266
     40  O        -32.1340   27.3360  -45.6170 O.2    44  ASN44      -0.2867
     41  CB       -32.3150   28.7180  -48.6590 C.3    44  ASN44       0.1155
     42  CG       -31.7690   30.1110  -48.9240 C.2    44  ASN44       0.2627
     43  OD1      -31.7490   30.9690  -48.0380 O.2    44  ASN44      -0.2716
     44  ND2      -31.3240   30.3460  -50.1560 N.am   44  ASN44      -0.0877
     45  N        -26.9110   30.7310  -47.5330 N.3    50  TRP50      -0.1241
     46  CA       -27.1890   29.3190  -47.7520 C.3    50  TRP50       0.1605
     47  C        -25.9190   28.4930  -47.7720 C.2    50  TRP50       0.2264
     48  O        -24.8220   29.0100  -48.0120 O.2    50  TRP50      -0.2867
     49  CB       -27.9140   29.1300  -49.0880 C.3    50  TRP50       0.0550
     50  CG       -27.0670   29.5150  -50.2670 C.ar   50  TRP50       0.0003
     51  CD1      -26.1150   28.7530  -50.8830 C.ar   50  TRP50       0.0946
     52  CD2      -27.0510   30.7870  -50.9270 C.ar   50  TRP50       0.0152
     53  NE1      -25.5050   29.4730  -51.8850 N.ar   50  TRP50      -0.2442
     54  CE2      -26.0590   30.7250  -51.9310 C.ar   50  TRP50       0.0810
     55  CE3      -27.7750   31.9750  -50.7610 C.ar   50  TRP50       0.0012
     56  CZ2      -25.7770   31.8090  -52.7720 C.ar   50  TRP50       0.0191
     57  CZ3      -27.4960   33.0500  -51.5940 C.ar   50  TRP50       0.0001
     58  CH2      -26.5020   32.9590  -52.5870 C.ar   50  TRP50       0.0015
     59  N        -23.4940   19.5790  -61.3120 N.3    92  HIS92      -0.1226
     60  CA       -23.2700   20.8660  -60.6770 C.3    92  HIS92       0.1752
     61  C        -24.2930   21.1580  -59.5820 C.2    92  HIS92       0.2595
     62  O        -23.9270   21.5640  -58.4820 O.2    92  HIS92      -0.2718
     63  CB       -23.3240   21.9810  -61.7220 C.3    92  HIS92       0.0759
     64  CG       -23.4150   23.3520  -61.1300 C.ar   92  HIS92       0.0818
     65  ND1      -22.3720   23.9380  -60.4450 N.ar   92  HIS92      -0.2268
     66  CD2      -24.4330   24.2440  -61.1020 C.ar   92  HIS92       0.1154
     67  CE1      -22.7430   25.1320  -60.0190 C.ar   92  HIS92       0.1986
     68  NE2      -23.9900   25.3420  -60.4060 N.ar   92  HIS92      -0.2212
     69  N        -25.5740   20.9750  -59.8910 N.am   93  GLU93      -0.1979
     70  CA       -26.6230   21.2310  -58.9120 C.3    93  GLU93       0.1602
     71  C        -26.5180   20.2580  -57.7400 C.2    93  GLU93       0.2287
     72  O        -26.7260   20.6420  -56.5890 O.2    93  GLU93      -0.2864
     73  CB       -28.0030   21.1360  -59.5710 C.3    93  GLU93       0.0415
     74  CG       -28.2880   22.2830  -60.5410 C.3    93  GLU93       0.1163
     75  CD       -28.3410   23.6410  -59.8510 C.2    93  GLU93       0.3649
     76  OE1      -27.7040   24.5950  -60.3490 O.co2  93  GLU93      -0.2457
     77  OE2      -29.0320   23.7620  -58.8170 O.co2  93  GLU93      -0.2457
     78  N        -23.2450   21.3280  -55.6300 N.3    96  LYS96      -0.1231
     79  CA       -23.4310   22.6250  -54.9990 C.3    96  LYS96       0.1693
     80  C        -24.5960   22.7090  -54.0250 C.2    96  LYS96       0.2592
     81  O        -24.4780   23.3210  -52.9620 O.2    96  LYS96      -0.2718
     82  CB       -23.6020   23.7050  -56.0710 C.3    96  LYS96       0.0285
     83  CG       -23.7360   25.1120  -55.5030 C.3    96  LYS96       0.0035
     84  CD       -23.7610   26.1560  -56.5990 C.3    96  LYS96       0.0206
     85  CE       -23.8450   27.5560  -56.0050 C.3    96  LYS96       0.1093
     86  NZ       -23.9580   28.6040  -57.0490 N.3    96  LYS96      -0.1314
     87  N        -25.7120   22.0870  -54.3820 N.am   97  HIS97      -0.1976
     88  CA       -26.9070   22.1420  -53.5500 C.3    97  HIS97       0.1656
     89  C        -27.3450   20.7950  -52.9860 C.2    97  HIS97       0.2291
     90  O        -27.6890   20.6900  -51.8110 O.2    97  HIS97      -0.2864
     91  CB       -28.0500   22.7450  -54.3630 C.3    97  HIS97       0.0771
     92  CG       -27.7960   24.1510  -54.8120 C.ar   97  HIS97       0.0820
     93  ND1      -27.7540   25.2130  -53.9360 N.ar   97  HIS97      -0.2267
     94  CD2      -27.5830   24.6700  -56.0440 C.ar   97  HIS97       0.1154
     95  CE1      -27.5310   26.3270  -54.6090 C.ar   97  HIS97       0.1986
     96  NE2      -27.4230   26.0250  -55.8910 N.ar   97  HIS97      -0.2212
     97  N        -39.0520   35.9100  -60.9280 N.3   158  GLU158     -0.1245
     98  CA       -37.8370   36.5690  -61.3670 C.3   158  GLU158      0.1567
     99  C        -38.0300   36.8360  -62.8490 C.2   158  GLU158      0.2260
    100  O        -38.4260   35.9410  -63.5940 O.2   158  GLU158     -0.2867
    101  CB       -36.6220   35.6640  -61.1740 C.3   158  GLU158      0.0388
    102  CG       -35.3200   36.3250  -61.5850 C.3   158  GLU158      0.1160
    103  CD       -34.1420   35.3920  -61.4680 C.2   158  GLU158      0.3649
    104  OE1      -34.3060   34.3010  -60.8800 O.co2 158  GLU158     -0.2457
    105  OE2      -33.0520   35.7520  -61.9560 O.co2 158  GLU158     -0.2457
    106  N        -37.9390   33.0700  -64.0800 N.3   171  GLN171     -0.1245
    107  CA       -37.9220   31.9660  -63.1290 C.3   171  GLN171      0.1566
    108  C        -38.9940   32.1130  -62.0580 C.2   171  GLN171      0.2260
    109  O        -39.4240   33.2190  -61.7320 O.2   171  GLN171     -0.2867
    110  CB       -36.5320   31.8250  -62.4920 C.3   171  GLN171      0.0367
    111  CG       -35.4860   31.3570  -63.5010 C.3   171  GLN171      0.0905
    112  CD       -34.1660   30.9590  -62.8730 C.2   171  GLN171      0.2608
    113  OE1      -33.5580   29.9680  -63.2730 O.2   171  GLN171     -0.2717
    114  NE2      -33.7080   31.7350  -61.8970 N.am  171  GLN171     -0.0878
    115  N        -39.9530   30.9530  -58.1440 N.3   173  TYR173     -0.1241
    116  CA       -39.4650   30.3880  -56.8940 C.3   173  TYR173      0.1605
    117  C        -40.6080   30.0250  -55.9620 C.2   173  TYR173      0.2264
    118  O        -41.5050   30.8300  -55.7300 O.2   173  TYR173     -0.2867
    119  CB       -38.5680   31.3900  -56.1520 C.3   173  TYR173      0.0534
    120  CG       -37.2720   31.7590  -56.8420 C.ar  173  TYR173     -0.0201
    121  CD1      -37.2780   32.4100  -58.0700 C.ar  173  TYR173     -0.0009
    122  CD2      -36.0390   31.5180  -56.2260 C.ar  173  TYR173     -0.0009
    123  CE1      -36.0970   32.8210  -58.6760 C.ar  173  TYR173      0.0417
    124  CE2      -34.8470   31.9280  -56.8220 C.ar  173  TYR173      0.0417
    125  CZ       -34.8860   32.5810  -58.0490 C.ar  173  TYR173      0.1957
    126  OH       -33.7230   33.0050  -58.6570 O.3   173  TYR173     -0.2866
    127  N        -36.1510   36.2750  -52.5470 N.3   190  PRO190     -0.2116
    128  CA       -34.9270   36.9200  -53.0340 C.3   190  PRO190      0.1372
    129  C        -35.2380   38.4190  -53.1820 C.2   190  PRO190      0.2244
    130  O        -36.4000   38.8190  -53.1130 O.2   190  PRO190     -0.2868
    131  CB       -34.6920   36.2370  -54.3790 C.3   190  PRO190      0.0268
    132  CG       -35.2360   34.8540  -54.1440 C.3   190  PRO190      0.0207
    133  CD       -36.5310   35.1490  -53.4200 C.3   190  PRO190      0.0892
@<TRIPOS>BOND
     1   106   107    1
     2   100    99    2
     3   111   112    1
     4   111   110    1
     5   113   112    2
     6   107   110    1
     7   107   108    1
     8   112   114   am
     9    99    98    1
    10    14    13    1
    11    14    17    1
    12    14    15    1
    13    19    18   ar
    14    19    21   ar
    15    17    18    1
    16   108   109    2
    17    18    20   ar
    18    21    22   ar
    19   105   103   ar
    20    63    64    1
    21    63    60    1
    22    20    22   ar
    23   102   103    1
    24   102   101    1
    25    16    15    2
    26   103   104   ar
    27    98   101    1
    28    98    97    1
    29    59    60    1
    30    64    66   ar
    31    64    65   ar
    32    66    68   ar
    33    60    61    1
    34    74    75    1
    35    74    73    1
    36    65    67   ar
    37    68    67   ar
    38    76    75   ar
    39    69    61   am
    40    69    70    1
    41    75    77   ar
    42    61    62    2
    43    73    70    1
    44    70    71    1
    45   123   121   ar
    46   123   125   ar
    47   126   125    1
    48   115   116    1
    49    34    36   ar
    50    34    32   ar
    51   121   120   ar
    52   125   124   ar
    53    71    72    2
    54    36    35   ar
    55    31    32   ar
    56    31    29   ar
    57    32    30   ar
    58    86    85    1
    59   116   119    1
    60   116   117    1
    61   120   122   ar
    62   120   119    1
    63   124   122   ar
    64    84    85    1
    65    84    83    1
    66    35    33   ar
    67    82    83    1
    68    82    79    1
    69    94    96   ar
    70    94    92   ar
    71    29    28   ar
    72   117   118    2
    73    96    95   ar
    74    30    33   ar
    75    30    28   ar
    76    78    79    1
    77    28    27    1
    78    79    80    1
    79    92    91    1
    80    92    93   ar
    81    95    93   ar
    82    87    80   am
    83    87    88    1
    84   131   132    1
    85   131   128    1
    86    91    88    1
    87     4     3    2
    88   132   133    1
    89    80    81    2
    90    23    24    1
    91     3     2    1
    92    27    24    1
    93    88    89    1
    94   133   127    1
    95   129   130    2
    96   129   128    1
    97     5     2    1
    98     5     6    1
    99    24    25    1
   100   128   127    1
   101    89    90    2
   102    56    58   ar
   103    56    54   ar
   104     2     1    1
   105    58    57   ar
   106     6     8   ar
   107     6     7   ar
   108     8    10   ar
   109     7     9   ar
   110    54    53   ar
   111    54    52   ar
   112    53    51   ar
   113    25    26    2
   114    57    55   ar
   115    10    11   ar
   116     9    11   ar
   117    11    12    1
   118    52    55   ar
   119    52    50   ar
   120    51    50   ar
   121    50    49    1
   122    44    42   am
   123    49    46    1
   124    42    41    1
   125    42    43    2
   126    41    38    1
   127    37    38    1
   128    48    47    2
   129    38    39    1
   130    47    46    1
   131    46    45    1
   132    39    40    2
