@<TRIPOS>MOLECULE
tmp/1vd5A00.pdb
 101 100 0 0 0
SMALL
GASTEIGER

@<TRIPOS>ATOM
      1  N         26.1990   70.2780  175.2380 N.3    42  TRP42      -0.1241
      2  CA        25.7030   71.3420  174.3610 C.3    42  TRP42       0.1605
      3  C         26.0010   72.7360  174.9000 C.2    42  TRP42       0.2264
      4  O         25.7860   73.7290  174.2090 O.2    42  TRP42      -0.2867
      5  CB        24.1770   71.2200  174.1680 C.3    42  TRP42       0.0550
      6  CG        23.3490   71.6070  175.3960 C.ar   42  TRP42       0.0003
      7  CD1       23.0370   70.8120  176.4620 C.ar   42  TRP42       0.0946
      8  CD2       22.7780   72.8980  175.6820 C.ar   42  TRP42       0.0152
      9  NE1       22.3110   71.5260  177.3950 N.ar   42  TRP42      -0.2442
     10  CE2       22.1410   72.8060  176.9410 C.ar   42  TRP42       0.0810
     11  CE3       22.7490   74.1210  174.9980 C.ar   42  TRP42       0.0012
     12  CZ2       21.4810   73.8960  177.5330 C.ar   42  TRP42       0.0191
     13  CZ3       22.0910   75.2060  175.5830 C.ar   42  TRP42       0.0001
     14  CH2       21.4670   75.0830  176.8390 C.ar   42  TRP42       0.0015
     15  N         22.9900   71.6520  168.1930 N.3    88  ASP88      -0.1239
     16  CA        23.6370   72.6260  169.0640 C.3    88  ASP88       0.1674
     17  C         25.0370   73.1120  168.7020 C.2    88  ASP88       0.2266
     18  O         25.7630   73.6310  169.5540 O.2    88  ASP88      -0.2867
     19  CB        23.5820   72.1290  170.5110 C.3    88  ASP88       0.1410
     20  CG        22.1540   72.0930  171.0510 C.2    88  ASP88       0.3668
     21  OD1       21.4150   73.0770  170.8310 O.co2  88  ASP88      -0.2456
     22  OD2       21.7680   71.0910  171.6900 O.co2  88  ASP88      -0.2456
     23  N         17.5990   66.6360  167.3870 N.3   134  TRP134     -0.1241
     24  CA        18.2190   65.5240  168.0910 C.3   134  TRP134      0.1605
     25  C         18.3030   64.1860  167.3710 C.2   134  TRP134      0.2264
     26  O         17.4570   63.8500  166.5440 O.2   134  TRP134     -0.2867
     27  CB        17.4770   65.2970  169.4110 C.3   134  TRP134      0.0550
     28  CG        17.3310   66.5180  170.2760 C.ar  134  TRP134      0.0003
     29  CD1       18.2940   67.4460  170.5540 C.ar  134  TRP134      0.0946
     30  CD2       16.1920   66.8710  171.0770 C.ar  134  TRP134      0.0152
     31  NE1       17.8290   68.3490  171.4840 N.ar  134  TRP134     -0.2442
     32  CE2       16.5440   68.0190  171.8230 C.ar  134  TRP134      0.0810
     33  CE3       14.9100   66.3240  171.2410 C.ar  134  TRP134      0.0012
     34  CZ2       15.6610   68.6300  172.7230 C.ar  134  TRP134      0.0191
     35  CZ3       14.0320   66.9320  172.1380 C.ar  134  TRP134      0.0001
     36  CH2       14.4140   68.0730  172.8670 C.ar  134  TRP134      0.0015
     37  N         13.0710   71.9950  167.7790 N.3   147  ILE147     -0.1245
     38  CA        12.8050   72.5670  169.0940 C.3   147  ILE147      0.1561
     39  C         13.0310   74.0680  169.0030 C.2   147  ILE147      0.2260
     40  O         13.8210   74.5320  168.1830 O.2   147  ILE147     -0.2867
     41  CB        13.6930   71.9350  170.2010 C.3   147  ILE147      0.0252
     42  CG1       15.1520   72.3690  170.0590 C.3   147  ILE147      0.0019
     43  CG2       13.5990   70.4160  170.1210 C.3   147  ILE147      0.0019
     44  CD1       16.0320   71.8480  171.1970 C.3   147  ILE147      0.0001
     45  N         14.5900   76.0000  170.9020 N.3   149  ASP149     -0.1239
     46  CA        15.9560   76.3700  171.2800 C.3   149  ASP149      0.1674
     47  C         16.8390   76.5360  170.0370 C.2   149  ASP149      0.2266
     48  O         17.7970   77.3150  170.0400 O.2   149  ASP149     -0.2867
     49  CB        16.6240   75.2940  172.1590 C.3   149  ASP149      0.1410
     50  CG        15.6780   74.6480  173.1670 C.2   149  ASP149      0.3668
     51  OD1       16.1710   74.2470  174.2420 O.co2 149  ASP149     -0.2456
     52  OD2       14.4680   74.5040  172.8910 O.co2 149  ASP149     -0.2456
     53  N          9.3870   68.6850  176.1760 N.3   210  HIS210     -0.1226
     54  CA        10.4450   67.8000  176.6210 C.3   210  HIS210      0.1752
     55  C         10.8320   68.2720  178.0130 C.2   210  HIS210      0.2595
     56  O         10.9050   67.4770  178.9510 O.2   210  HIS210     -0.2718
     57  CB        11.6660   67.8400  175.7000 C.3   210  HIS210      0.0759
     58  CG        12.8140   67.0260  176.2120 C.ar  210  HIS210      0.0818
     59  ND1       12.7020   65.6810  176.4940 N.ar  210  HIS210     -0.2268
     60  CD2       14.0770   67.3780  176.5530 C.ar  210  HIS210      0.1154
     61  CE1       13.8450   65.2400  176.9890 C.ar  210  HIS210      0.1986
     62  NE2       14.6960   66.2500  177.0360 N.ar  210  HIS210     -0.2212
     63  N         11.0480   69.5770  178.1520 N.am  211  GLN211     -0.1979
     64  CA        11.4270   70.1400  179.4400 C.3   211  GLN211      0.1601
     65  C         10.3460   70.9830  180.1060 C.2   211  GLN211      0.2287
     66  O         10.5470   71.5040  181.2010 O.2   211  GLN211     -0.2864
     67  CB        12.7240   70.9350  179.2870 C.3   211  GLN211      0.0394
     68  CG        13.9570   70.0390  179.3030 C.3   211  GLN211      0.0908
     69  CD        15.1180   70.6220  178.5230 C.2   211  GLN211      0.2608
     70  OE1       15.1250   70.6010  177.2910 O.2   211  GLN211     -0.2717
     71  NE2       16.1050   71.1530  179.2380 N.am  211  GLN211     -0.0878
     72  N         17.3480   72.8860  184.9850 N.3   338  TYR338     -0.1227
     73  CA        17.6500   72.2200  183.7250 C.3   338  TYR338      0.1736
     74  C         16.4800   71.4140  183.1740 C.2   338  TYR338      0.2595
     75  O         15.9930   71.6950  182.0810 O.2   338  TYR338     -0.2718
     76  CB        18.8850   71.3290  183.9080 C.3   338  TYR338      0.0548
     77  CG        19.4920   70.7880  182.6300 C.ar  338  TYR338     -0.0200
     78  CD1       19.2660   71.4100  181.4010 C.ar  338  TYR338     -0.0009
     79  CD2       20.3340   69.6750  182.6580 C.ar  338  TYR338     -0.0009
     80  CE1       19.8670   70.9380  180.2320 C.ar  338  TYR338      0.0417
     81  CE2       20.9410   69.1940  181.4960 C.ar  338  TYR338      0.0417
     82  CZ        20.7030   69.8310  180.2880 C.ar  338  TYR338      0.1957
     83  OH        21.3000   69.3610  179.1410 O.3   338  TYR338     -0.2866
     84  N         16.0280   70.4220  183.9310 N.am  339  HIS339     -0.1975
     85  CA        14.9160   69.5720  183.5080 C.3   339  HIS339      0.1656
     86  C         14.1410   69.1800  184.7630 C.2   339  HIS339      0.2291
     87  O         14.3940   68.1380  185.3710 O.2   339  HIS339     -0.2864
     88  CB        15.4620   68.3320  182.7930 C.3   339  HIS339      0.0771
     89  CG        14.4060   67.4440  182.2100 C.ar  339  HIS339      0.0820
     90  ND1       13.0810   67.8140  182.1240 N.ar  339  HIS339     -0.2267
     91  CD2       14.4860   66.2060  181.6650 C.ar  339  HIS339      0.1154
     92  CE1       12.3910   66.8430  181.5520 C.ar  339  HIS339      0.1986
     93  NE2       13.2200   65.8560  181.2640 N.ar  339  HIS339     -0.2212
     94  N         16.3720   66.8460  187.0860 N.3   344  ILE344     -0.1245
     95  CA        17.7580   67.1930  186.7740 C.3   344  ILE344      0.1561
     96  C         18.0860   68.6550  187.0750 C.2   344  ILE344      0.2260
     97  O         17.6190   69.5600  186.3770 O.2   344  ILE344     -0.2867
     98  CB        18.0730   66.9210  185.2900 C.3   344  ILE344      0.0252
     99  CG1       17.6850   65.4840  184.9350 C.3   344  ILE344      0.0019
    100  CG2       19.5590   67.1520  185.0200 C.3   344  ILE344      0.0019
    101  CD1       17.8170   65.1610  183.4590 C.3   344  ILE344      0.0001
@<TRIPOS>BOND
     1    26    25    2
     2    25    24    1
     3    23    24    1
     4    37    38    1
     5    24    27    1
     6    40    39    2
     7    15    16    1
     8    17    16    1
     9    17    18    2
    10    39    38    1
    11    16    19    1
    12    38    41    1
    13    27    28    1
    14    47    48    2
    15    47    46    1
    16    42    41    1
    17    42    44    1
    18    43    41    1
    19    28    29   ar
    20    28    30   ar
    21    19    20    1
    22    29    31   ar
    23    21    20   ar
    24    45    46    1
    25    20    22   ar
    26    30    33   ar
    27    30    32   ar
    28    33    35   ar
    29    46    49    1
    30    31    32   ar
    31    32    34   ar
    32    35    36   ar
    33    49    50    1
    34    34    36   ar
    35    52    50   ar
    36    50    51   ar
    37     5     2    1
    38     5     6    1
    39     4     3    2
    40     2     3    1
    41     2     1    1
    42    11    13   ar
    43    11     8   ar
    44     6     8   ar
    45     6     7   ar
    46    13    14   ar
    47     8    10   ar
    48    57    58    1
    49    57    54    1
    50    53    54    1
    51    58    59   ar
    52    58    60   ar
    53     7     9   ar
    54    59    61   ar
    55    60    62   ar
    56    54    55    1
    57    14    12   ar
    58    10     9   ar
    59    10    12   ar
    60    61    62   ar
    61    70    69    2
    62    55    63   am
    63    55    56    2
    64    63    64    1
    65    69    71   am
    66    69    68    1
    67    83    82    1
    68    67    68    1
    69    67    64    1
    70    64    65    1
    71    65    66    2
    72    80    82   ar
    73    80    78   ar
    74    82    81   ar
    75    93    92   ar
    76    93    91   ar
    77    78    77   ar
    78    81    79   ar
    79    92    90   ar
    80    91    89   ar
    81    75    74    2
    82    90    89   ar
    83    89    88    1
    84    77    79   ar
    85    77    76    1
    86    88    85    1
    87    74    73    1
    88    74    84   am
    89   101    99    1
    90    85    84    1
    91    85    86    1
    92    73    76    1
    93    73    72    1
    94    86    87    2
    95    99    98    1
    96   100    98    1
    97    98    95    1
    98    97    96    2
    99    95    96    1
   100    95    94    1
