@<TRIPOS>MOLECULE
tmp/1vdnA00.pdb
 164 161 0 0 0
SMALL
GASTEIGER

@<TRIPOS>ATOM
      1  N        -22.0460   38.4230  -16.7920 N.3    51  HIS51      -0.1226
      2  CA       -23.3910   38.9780  -16.7470 C.3    51  HIS51       0.1752
      3  C        -24.0610   38.9630  -15.3880 C.2    51  HIS51       0.2595
      4  O        -25.1340   39.5400  -15.2110 O.2    51  HIS51      -0.2718
      5  CB       -24.2890   38.2430  -17.7510 C.3    51  HIS51       0.0759
      6  CG       -24.5640   36.8160  -17.3880 C.ar   51  HIS51       0.0818
      7  ND1      -23.6430   35.8070  -17.5660 N.ar   51  HIS51      -0.2268
      8  CD2      -25.6590   36.2320  -16.8410 C.ar   51  HIS51       0.1154
      9  CE1      -24.1560   34.6640  -17.1450 C.ar   51  HIS51       0.1986
     10  NE2      -25.3790   34.8950  -16.7000 N.ar   51  HIS51      -0.2212
     11  N        -23.4300   38.3160  -14.4220 N.am   52  ARG52      -0.1980
     12  CA       -24.0200   38.2360  -13.1020 C.3    52  ARG52       0.1597
     13  C        -22.9140   38.2880  -12.0600 C.2    52  ARG52       0.2287
     14  O        -22.1950   37.3130  -11.8680 O.2    52  ARG52      -0.2864
     15  CB       -24.7980   36.9270  -13.0060 C.3    52  ARG52       0.0334
     16  CG       -25.6950   36.7950  -11.8100 C.3    52  ARG52       0.0492
     17  CD       -26.3520   35.4290  -11.8310 C.3    52  ARG52       0.2205
     18  NE       -27.1450   35.2000  -10.6360 N.pl3  52  ARG52      -0.0865
     19  CZ       -27.2080   34.0360  -10.0020 C.cat  52  ARG52       0.5346
     20  NH1      -26.5210   32.9940  -10.4530 N.pl3  52  ARG52       0.1354
     21  NH2      -27.9460   33.9200   -8.9090 N.pl3  52  ARG52       0.1354
     22  N        -22.3970   39.1180   -8.1040 N.3    54  ILE54      -0.1231
     23  CA       -23.0390   39.3670   -6.8220 C.3    54  ILE54       0.1678
     24  C        -22.0520   39.3830   -5.6610 C.2    54  ILE54       0.2434
     25  O        -21.4850   38.3480   -5.3030 O.2    54  ILE54      -0.2733
     26  CB       -24.1050   38.2920   -6.5540 C.3    54  ILE54       0.0265
     27  CG1      -25.1110   38.2680   -7.7070 C.3    54  ILE54       0.0019
     28  CG2      -24.8140   38.5700   -5.2400 C.3    54  ILE54       0.0020
     29  CD1      -26.1690   37.1920   -7.5750 C.3    54  ILE54       0.0001
     30  N        -21.8370   40.5630   -5.0570 N.am   55  PRO55      -0.2718
     31  CA       -20.9130   40.6990   -3.9270 C.3    55  PRO55       0.1535
     32  C        -21.3060   39.7580   -2.7890 C.2    55  PRO55       0.2599
     33  O        -22.4900   39.5520   -2.5200 O.2    55  PRO55      -0.2715
     34  CB       -21.0580   42.1690   -3.5370 C.3    55  PRO55       0.0310
     35  CG       -21.3920   42.8310   -4.8420 C.3    55  PRO55       0.0237
     36  CD       -22.3920   41.8740   -5.4400 C.3    55  PRO55       0.0939
     37  N        -20.3030   39.2000   -2.1190 N.am   56  ASP56      -0.1958
     38  CA       -20.5200   38.2640   -1.0220 C.3    56  ASP56       0.1840
     39  C        -21.0950   36.9430   -1.5200 C.2    56  ASP56       0.2622
     40  O        -21.7040   36.1990   -0.7490 O.2    56  ASP56      -0.2715
     41  CB       -21.4670   38.8510    0.0390 C.3    56  ASP56       0.1450
     42  CG       -20.9740   40.1670    0.6060 C.2    56  ASP56       0.3671
     43  OD1      -19.7520   40.3100    0.8180 O.co2  56  ASP56      -0.2456
     44  OD2      -21.8170   41.0570    0.8570 O.co2  56  ASP56      -0.2456
     45  N        -20.9110   36.6460   -2.8070 N.am   57  PHE57      -0.1960
     46  CA       -21.4200   35.3950   -3.3610 C.3    57  PHE57       0.1771
     47  C        -20.5330   34.8310   -4.4720 C.2    57  PHE57       0.2619
     48  O        -19.7390   33.9260   -4.2330 O.2    57  PHE57      -0.2715
     49  CB       -22.8520   35.5840   -3.8840 C.3    57  PHE57       0.0574
     50  CG       -23.4920   34.3180   -4.3920 C.ar   57  PHE57      -0.0200
     51  CD1      -24.4620   34.3750   -5.3860 C.ar   57  PHE57      -0.0042
     52  CD2      -23.1330   33.0730   -3.8800 C.ar   57  PHE57      -0.0042
     53  CE1      -25.0630   33.2160   -5.8680 C.ar   57  PHE57      -0.0003
     54  CE2      -23.7300   31.9040   -4.3530 C.ar   57  PHE57      -0.0003
     55  CZ       -24.6990   31.9770   -5.3510 C.ar   57  PHE57      -0.0000
     56  N        -20.6640   35.3570   -5.6850 N.am   58  MET58      -0.1977
     57  CA       -19.8550   34.8470   -6.7860 C.3    58  MET58       0.1605
     58  C        -19.9360   35.6790   -8.0560 C.2    58  MET58       0.2287
     59  O        -20.7330   36.6110   -8.1580 O.2    58  MET58      -0.2864
     60  CB       -20.2720   33.4060   -7.1040 C.3    58  MET58       0.0413
     61  CG       -21.7510   33.2190   -7.4840 C.3    58  MET58       0.0598
     62  SD       -22.2030   33.7340   -9.1760 S.3    58  MET58      -0.1393
     63  CE       -23.2950   35.1110   -8.8430 C.3    58  MET58       0.0692
     64  N        -20.4540   35.2370  -12.1590 N.3    60  GLN60      -0.1245
     65  CA       -20.9040   34.2630  -13.1430 C.3    60  GLN60       0.1566
     66  C        -20.7320   34.7890  -14.5600 C.2    60  GLN60       0.2260
     67  O        -21.0120   35.9570  -14.8420 O.2    60  GLN60      -0.2867
     68  CB       -22.3750   33.8910  -12.9310 C.3    60  GLN60       0.0367
     69  CG       -22.8360   32.7530  -13.8370 C.3    60  GLN60       0.0905
     70  CD       -24.2410   32.2830  -13.5330 C.2    60  GLN60       0.2608
     71  OE1      -24.6620   32.2660  -12.3780 O.2    60  GLN60      -0.2717
     72  NE2      -24.9680   31.8750  -14.5680 N.am   60  GLN60      -0.0878
     73  N        -27.1780   34.4570  -19.6100 N.3    69  GLY69      -0.1225
     74  CA       -27.5690   33.2670  -18.8740 C.3    69  GLY69       0.1811
     75  C        -28.4650   32.2970  -19.6240 C.2    69  GLY69       0.2280
     76  O        -28.6440   31.1560  -19.1980 O.2    69  GLY69      -0.2866
     77  N        -22.1600   26.6360  -13.5960 N.3    98  ALA98      -0.1231
     78  CA       -23.4880   27.1890  -13.3640 C.3    98  ALA98       0.1694
     79  C        -24.3830   26.2450  -14.1650 C.2    98  ALA98       0.2592
     80  O        -23.9010   25.5390  -15.0530 O.2    98  ALA98      -0.2718
     81  CB       -23.5770   28.6000  -13.9200 C.3    98  ALA98       0.0304
     82  N        -25.6750   26.2010  -13.8620 N.am   99  ASN99      -0.1960
     83  CA       -26.5450   25.3130  -14.6250 C.3    99  ASN99       0.1819
     84  C        -28.0190   25.6560  -14.4790 C.2    99  ASN99       0.2621
     85  O        -28.3830   26.6310  -13.8210 O.2    99  ASN99      -0.2715
     86  CB       -26.3090   23.8450  -14.2310 C.3    99  ASN99       0.1195
     87  CG       -26.6210   23.5650  -12.7710 C.2    99  ASN99       0.2630
     88  OD1      -27.6600   23.9790  -12.2570 O.2    99  ASN99      -0.2716
     89  ND2      -25.7240   22.8480  -12.0980 N.am   99  ASN99      -0.0877
     90  N        -28.8570   24.8430  -15.1100 N.am  100  ALA100     -0.1963
     91  CA       -30.3020   25.0310  -15.0760 C.3   100  ALA100      0.1728
     92  C        -30.9420   23.8030  -14.4480 C.2   100  ALA100      0.2616
     93  O        -32.0780   23.4460  -14.7630 O.2   100  ALA100     -0.2715
     94  CB       -30.8310   25.2320  -16.4870 C.3   100  ALA100      0.0334
     95  N        -30.2040   23.1590  -13.5530 N.am  101  GLY101     -0.1955
     96  CA       -30.7090   21.9690  -12.9030 C.3   101  GLY101      0.1869
     97  C        -29.8120   20.7840  -13.1880 C.2   101  GLY101      0.2309
     98  O        -28.7640   20.9400  -13.8160 O.2   101  GLY101     -0.2863
     99  N        -21.4940   28.0690  -19.0850 N.3   108  GLN108     -0.1245
    100  CA       -21.5240   29.0060  -17.9730 C.3   108  GLN108      0.1566
    101  C        -20.8630   28.4570  -16.7250 C.2   108  GLN108      0.2260
    102  O        -21.0210   27.2880  -16.3770 O.2   108  GLN108     -0.2867
    103  CB       -22.9570   29.4390  -17.6720 C.3   108  GLN108      0.0367
    104  CG       -23.5500   30.2530  -18.8030 C.3   108  GLN108      0.0905
    105  CD       -24.8640   30.9010  -18.4380 C.2   108  GLN108      0.2608
    106  OE1      -24.9430   31.6830  -17.4890 O.2   108  GLN108     -0.2717
    107  NE2      -25.9080   30.5880  -19.2010 N.am  108  GLN108     -0.0878
    108  N        -19.0760   29.8550  -12.6140 N.3   110  PHE110     -0.1241
    109  CA       -19.0610   30.9010  -11.6100 C.3   110  PHE110      0.1605
    110  C        -17.8210   30.7170  -10.7440 C.2   110  PHE110      0.2264
    111  O        -17.2820   29.6150  -10.6410 O.2   110  PHE110     -0.2867
    112  CB       -20.3690   30.9360  -10.7870 C.3   110  PHE110      0.0534
    113  CG       -20.6220   29.7200   -9.9380 C.ar  110  PHE110     -0.0203
    114  CD1      -20.2750   29.7190   -8.5930 C.ar  110  PHE110     -0.0042
    115  CD2      -21.2720   28.6090  -10.4600 C.ar  110  PHE110     -0.0042
    116  CE1      -20.5810   28.6320   -7.7780 C.ar  110  PHE110     -0.0003
    117  CE2      -21.5820   27.5140   -9.6530 C.ar  110  PHE110     -0.0003
    118  CZ       -21.2350   27.5300   -8.3050 C.ar  110  PHE110     -0.0000
    119  N        -17.0580   33.4950   -1.6150 N.3   114  VAL114     -0.1245
    120  CA       -17.3800   33.1000   -0.2400 C.3   114  VAL114      0.1561
    121  C        -17.6330   31.5920   -0.2500 C.2   114  VAL114      0.2260
    122  O        -17.8290   30.9920   -1.3110 O.2   114  VAL114     -0.2867
    123  CB       -18.6720   33.7900    0.3120 C.3   114  VAL114      0.0252
    124  CG1      -18.5360   35.3020    0.2680 C.3   114  VAL114      0.0019
    125  CG2      -19.8900   33.3340   -0.4770 C.3   114  VAL114      0.0019
    126  N        -23.7610   24.8170    0.4330 N.3   118  TRP118     -0.1227
    127  CA       -25.1080   24.4040    0.0490 C.3   118  TRP118      0.1737
    128  C        -25.2240   24.0640   -1.4390 C.2   118  TRP118      0.2595
    129  O        -26.2490   23.5500   -1.8900 O.2   118  TRP118     -0.2718
    130  CB       -26.1050   25.5030    0.4190 C.3   118  TRP118      0.0564
    131  CG       -25.7570   26.8230   -0.1610 C.ar  118  TRP118      0.0003
    132  CD1      -26.0960   27.2900   -1.3960 C.ar  118  TRP118      0.0946
    133  CD2      -24.9540   27.8350    0.4480 C.ar  118  TRP118      0.0152
    134  NE1      -25.5500   28.5350   -1.5960 N.ar  118  TRP118     -0.2442
    135  CE2      -24.8420   28.8940   -0.4790 C.ar  118  TRP118      0.0810
    136  CE3      -24.3120   27.9500    1.6900 C.ar  118  TRP118      0.0012
    137  CZ2      -24.1150   30.0560   -0.2070 C.ar  118  TRP118      0.0191
    138  CZ3      -23.5870   29.1070    1.9620 C.ar  118  TRP118      0.0001
    139  CH2      -23.4950   30.1440    1.0150 C.ar  118  TRP118      0.0015
    140  N        -24.1740   24.3520   -2.2010 N.am  119  LEU119     -0.1980
    141  CA       -24.1770   24.0530   -3.6290 C.3   119  LEU119      0.1596
    142  C        -23.5530   22.6860   -3.8940 C.2   119  LEU119      0.2287
    143  O        -23.5910   22.1810   -5.0180 O.2   119  LEU119     -0.2864
    144  CB       -23.4260   25.1430   -4.4010 C.3   119  LEU119      0.0297
    145  CG       -24.0190   26.5540   -4.2850 C.3   119  LEU119      0.0022
    146  CD1      -23.2090   27.5250   -5.1300 C.3   119  LEU119      0.0001
    147  CD2      -25.4750   26.5390   -4.7490 C.3   119  LEU119      0.0001
    148  N        -23.7420   21.6390   -8.0880 N.3   123  HIS123     -0.1241
    149  CA       -22.8820   22.2450   -9.0990 C.3   123  HIS123      0.1621
    150  C        -21.5330   21.5490   -9.0900 C.2   123  HIS123      0.2264
    151  O        -20.9960   21.2420   -8.0270 O.2   123  HIS123     -0.2867
    152  CB       -22.7020   23.7350   -8.8090 C.3   123  HIS123      0.0745
    153  CG       -23.9680   24.5200   -8.9220 C.ar  123  HIS123      0.0817
    154  ND1      -24.4050   25.0570  -10.1120 N.ar  123  HIS123     -0.2268
    155  CD2      -24.9270   24.7990   -8.0070 C.ar  123  HIS123      0.1154
    156  CE1      -25.5820   25.6320   -9.9280 C.ar  123  HIS123      0.1986
    157  NE2      -25.9210   25.4880   -8.6590 N.ar  123  HIS123     -0.2212
    158  N        -26.4110   43.3410   -5.6260 N.3   145  PRO145     -0.2116
    159  CA       -27.2260   42.2060   -5.1860 C.3   145  PRO145      0.1372
    160  C        -27.9970   41.4970   -6.2940 C.2   145  PRO145      0.2244
    161  O        -28.1820   40.2830   -6.2470 O.2   145  PRO145     -0.2868
    162  CB       -28.1490   42.8320   -4.1440 C.3   145  PRO145      0.0268
    163  CG       -27.2820   43.8940   -3.5440 C.3   145  PRO145      0.0207
    164  CD       -26.6500   44.5180   -4.7710 C.3   145  PRO145      0.0892
@<TRIPOS>BOND
     1    75    76    2
     2    75    74    1
     3    73    74    1
     4   107   105   am
     5    99   100    1
     6   104   105    1
     7   104   103    1
     8   105   106    2
     9   100   103    1
    10   100   101    1
    11     5     6    1
    12     5     2    1
    13     7     6   ar
    14     7     9   ar
    15     6     8   ar
    16     9    10   ar
    17     8    10   ar
    18     1     2    1
    19     2     3    1
    20   101   102    2
    21    94    91    1
    22     3     4    2
    23     3    11   am
    24    90    91    1
    25    90    84   am
    26    91    92    1
    27    80    79    2
    28    67    66    2
    29    93    92    2
    30    83    84    1
    31    83    86    1
    32    83    82    1
    33    72    70   am
    34    66    65    1
    35    84    85    2
    36    92    95   am
    37    11    12    1
    38    86    87    1
    39    79    82   am
    40    79    78    1
    41    81    78    1
    42    69    70    1
    43    69    68    1
    44    98    97    2
    45    77    78    1
    46    95    96    1
    47    70    71    2
    48    97    96    1
    49    65    68    1
    50    65    64    1
    51    12    15    1
    52    12    13    1
    53    15    16    1
    54    87    88    2
    55    87    89   am
    56   108   109    1
    57    13    14    2
    58    17    16    1
    59    17    18    1
    60   109   112    1
    61   109   110    1
    62   112   113    1
    63   110   111    2
    64    18    19    2
    65   115   113   ar
    66   115   117   ar
    67    20    19    1
    68   154   156   ar
    69   154   153   ar
    70    19    21    1
    71   113   114   ar
    72   156   157   ar
    73   117   118   ar
    74    62    63    1
    75    62    61    1
    76   149   150    1
    77   149   152    1
    78   149   148    1
    79   150   151    2
    80   153   152    1
    81   153   155   ar
    82   157   155   ar
    83   114   116   ar
    84   118   116   ar
    85    59    58    2
    86    22    23    1
    87    58    57    1
    88    27    29    1
    89    27    26    1
    90    61    60    1
    91    60    57    1
    92    23    26    1
    93    23    24    1
    94    57    56    1
    95    26    28    1
    96   160   161    2
    97   160   159    1
    98    53    51   ar
    99    53    55   ar
   100    56    47   am
   101    24    25    2
   102    24    30   am
   103   158   159    1
   104   158   164    1
   105    36    30    1
   106    36    35    1
   107    51    50   ar
   108    55    54   ar
   109   159   162    1
   110   146   145    1
   111    30    31    1
   112   143   142    2
   113    35    34    1
   114   164   163    1
   115   147   145    1
   116    47    48    2
   117    47    46    1
   118   144   145    1
   119   144   141    1
   120    50    49    1
   121    50    52   ar
   122    54    52   ar
   123   162   163    1
   124    31    34    1
   125    31    32    1
   126   142   141    1
   127    49    46    1
   128   141   140    1
   129    46    45    1
   130    45    39   am
   131    32    33    2
   132    32    37   am
   133   140   128   am
   134    37    38    1
   135   129   128    2
   136   119   120    1
   137   134   132   ar
   138   134   135   ar
   139    39    38    1
   140    39    40    2
   141   128   127    1
   142   132   131   ar
   143   122   121    2
   144    38    41    1
   145   135   137   ar
   146   135   133   ar
   147   125   123    1
   148   121   120    1
   149   120   123    1
   150   137   139   ar
   151   131   130    1
   152   131   133   ar
   153    41    42    1
   154   127   130    1
   155   127   126    1
   156   124   123    1
   157   133   136   ar
   158    42    43   ar
   159    42    44   ar
   160   139   138   ar
   161   136   138   ar
