@<TRIPOS>MOLECULE
tmp/1ve3B00.pdb
 188 183 0 0 0
SMALL
GASTEIGER

@<TRIPOS>ATOM
      1  N         -9.9290   38.5960  131.0370 N.3     6  TYR6       -0.1241
      2  CA        -9.4760   37.2050  130.9690 C.3     6  TYR6        0.1605
      3  C         -9.6660   36.4280  132.2760 C.2     6  TYR6        0.2264
      4  O         -9.7140   35.1930  132.2730 O.2     6  TYR6       -0.2867
      5  CB        -8.0100   37.1420  130.5220 C.3     6  TYR6        0.0534
      6  CG        -7.8440   37.4350  129.0480 C.ar    6  TYR6       -0.0201
      7  CD1       -8.5560   36.7100  128.0960 C.ar    6  TYR6       -0.0009
      8  CD2       -7.0130   38.4620  128.6030 C.ar    6  TYR6       -0.0009
      9  CE1       -8.4540   37.0040  126.7310 C.ar    6  TYR6        0.0417
     10  CE2       -6.9010   38.7670  127.2340 C.ar    6  TYR6        0.0417
     11  CZ        -7.6310   38.0320  126.3080 C.ar    6  TYR6        0.1957
     12  OH        -7.5720   38.3340  124.9620 O.3     6  TYR6       -0.2866
     13  N        -10.5320   31.5810  127.7780 N.3    12  TYR12      -0.1241
     14  CA        -9.1430   31.6390  127.3380 C.3    12  TYR12       0.1605
     15  C         -8.0940   31.3570  128.4260 C.2    12  TYR12       0.2264
     16  O         -6.8860   31.3700  128.1480 O.2    12  TYR12      -0.2867
     17  CB        -8.8910   33.0240  126.7320 C.3    12  TYR12       0.0534
     18  CG        -9.9560   33.4620  125.7320 C.ar   12  TYR12      -0.0201
     19  CD1      -10.0290   32.8900  124.4630 C.ar   12  TYR12      -0.0009
     20  CD2      -10.8740   34.4620  126.0560 C.ar   12  TYR12      -0.0009
     21  CE1      -10.9870   33.3110  123.5310 C.ar   12  TYR12       0.0417
     22  CE2      -11.8390   34.8860  125.1390 C.ar   12  TYR12       0.0417
     23  CZ       -11.8860   34.3110  123.8800 C.ar   12  TYR12       0.1957
     24  OH       -12.8210   34.7420  122.9660 O.3    12  TYR12      -0.2866
     25  N        -13.5600   26.5640  127.1650 N.3    20  TYR20      -0.1241
     26  CA       -12.2450   26.3490  126.5380 C.3    20  TYR20       0.1605
     27  C        -12.2620   25.0680  125.7000 C.2    20  TYR20       0.2264
     28  O        -11.8800   25.0720  124.5290 O.2    20  TYR20      -0.2867
     29  CB       -11.1550   26.2680  127.6240 C.3    20  TYR20       0.0534
     30  CG        -9.7560   26.6390  127.1650 C.ar   20  TYR20      -0.0201
     31  CD1       -9.1370   25.9600  126.1120 C.ar   20  TYR20      -0.0009
     32  CD2       -9.0400   27.6640  127.7960 C.ar   20  TYR20      -0.0009
     33  CE1       -7.8420   26.2880  125.6970 C.ar   20  TYR20       0.0417
     34  CE2       -7.7430   27.9970  127.3880 C.ar   20  TYR20       0.0417
     35  CZ        -7.1530   27.3040  126.3390 C.ar   20  TYR20       0.1957
     36  OH        -5.8750   27.6240  125.9280 O.3    20  TYR20      -0.2866
     37  N        -13.9040   25.4500  122.2860 N.3    23  ARG23      -0.1245
     38  CA       -13.0950   26.0830  121.2500 C.3    23  ARG23       0.1563
     39  C        -12.0930   25.0560  120.7210 C.2    23  ARG23       0.2260
     40  O        -11.8490   24.9740  119.5230 O.2    23  ARG23      -0.2867
     41  CB       -12.3370   27.2940  121.8160 C.3    23  ARG23       0.0307
     42  CG       -13.2350   28.3840  122.4220 C.3    23  ARG23       0.0489
     43  CD       -12.4000   29.3580  123.2380 C.3    23  ARG23       0.2205
     44  NE       -11.2800   29.8060  122.4410 N.pl3  23  ARG23      -0.0865
     45  CZ       -10.0060   29.7740  122.8150 C.cat  23  ARG23       0.5346
     46  NH1       -9.6330   29.3200  124.0080 N.pl3  23  ARG23       0.1354
     47  NH2       -9.1000   30.1760  121.9540 N.pl3  23  ARG23       0.1354
     48  N          3.0280   28.4160  118.5230 N.3    41  ASP41      -0.1239
     49  CA         1.7030   28.8220  118.9880 C.3    41  ASP41       0.1674
     50  C          1.8900   30.2850  119.3830 C.2    41  ASP41       0.2266
     51  O          2.3020   30.5780  120.4940 O.2    41  ASP41      -0.2867
     52  CB         1.2980   28.0050  120.2220 C.3    41  ASP41       0.1410
     53  CG        -0.1420   28.2630  120.6630 C.2    41  ASP41       0.3668
     54  OD1       -0.7550   29.2570  120.2060 O.co2  41  ASP41      -0.2456
     55  OD2       -0.6610   27.4680  121.4830 O.co2  41  ASP41      -0.2456
     56  N          0.9400   33.8190  120.6760 N.3    43  ALA43      -0.1231
     57  CA        -0.0880   34.3450  121.5840 C.3    43  ALA43       0.1694
     58  C         -0.8070   33.0930  122.1200 C.2    43  ALA43       0.2592
     59  O         -2.0360   32.9840  122.0330 O.2    43  ALA43      -0.2718
     60  CB        -1.0820   35.2480  120.8180 C.3    43  ALA43       0.0304
     61  N         -0.0240   32.1680  122.6840 N.am   44  CYS44      -0.1956
     62  CA        -0.5260   30.8770  123.1750 C.3    44  CYS44       0.1843
     63  C         -1.4630   30.8530  124.3760 C.2    44  CYS44       0.2626
     64  O         -2.0970   29.8300  124.6410 O.2    44  CYS44      -0.2714
     65  CB         0.6550   29.9410  123.4730 C.3    44  CYS44       0.0997
     66  SG         1.7260   30.4920  124.8110 S.3    44  CYS44      -0.0797
     67  N         -1.5470   31.9570  125.1080 N.am   45  GLY45      -0.1954
     68  CA        -2.4140   31.9810  126.2730 C.3    45  GLY45       0.1869
     69  C         -1.8810   31.0190  127.3190 C.2    45  GLY45       0.2309
     70  O         -0.6850   31.0360  127.6440 O.2    45  GLY45      -0.2863
     71  N         -3.9590   24.9040  123.1390 N.3    49  PHE49      -0.1241
     72  CA        -3.7160   24.4510  121.7780 C.3    49  PHE49       0.1605
     73  C         -2.3020   23.8860  121.6030 C.2    49  PHE49       0.2264
     74  O         -2.0620   23.0610  120.7220 O.2    49  PHE49      -0.2867
     75  CB        -3.9770   25.5900  120.7970 C.3    49  PHE49       0.0534
     76  CG        -5.4330   25.8650  120.5940 C.ar   49  PHE49      -0.0203
     77  CD1       -6.1970   25.0440  119.7690 C.ar   49  PHE49      -0.0042
     78  CD2       -6.0580   26.9040  121.2710 C.ar   49  PHE49      -0.0042
     79  CE1       -7.5600   25.2550  119.6250 C.ar   49  PHE49      -0.0003
     80  CE2       -7.4210   27.1220  121.1320 C.ar   49  PHE49      -0.0003
     81  CZ        -8.1720   26.2970  120.3070 C.ar   49  PHE49      -0.0000
     82  N          4.5280   31.0790  122.7280 N.3    63  VAL63      -0.1231
     83  CA         4.9750   32.4120  123.1200 C.3    63  VAL63       0.1692
     84  C          3.7760   33.3000  123.4110 C.2    63  VAL63       0.2592
     85  O          2.8200   33.3190  122.6400 O.2    63  VAL63      -0.2718
     86  CB         5.7940   33.1010  121.9780 C.3    63  VAL63       0.0266
     87  CG1        5.9960   34.5810  122.2940 C.3    63  VAL63       0.0020
     88  CG2        7.1320   32.4120  121.7980 C.3    63  VAL63       0.0020
     89  N          3.8440   34.0300  124.5230 N.am   64  ASP64      -0.1960
     90  CA         2.7920   34.9630  124.9080 C.3    64  ASP64       0.1840
     91  C          3.4600   36.1250  125.6510 C.2    64  ASP64       0.2622
     92  O          4.4460   35.9410  126.3720 O.2    64  ASP64      -0.2715
     93  CB         1.7220   34.2720  125.7810 C.3    64  ASP64       0.1450
     94  CG         0.3920   35.0640  125.8330 C.2    64  ASP64       0.3671
     95  OD1        0.3310   36.0880  126.5440 O.co2  64  ASP64      -0.2456
     96  OD2       -0.5910   34.6700  125.1580 O.co2  64  ASP64      -0.2456
     97  N          2.9350   37.3270  125.4440 N.am   65  ILE65      -0.1963
     98  CA         3.4730   38.5250  126.0790 C.3    65  ILE65       0.1727
     99  C          3.1510   38.5950  127.5710 C.2    65  ILE65       0.2616
    100  O          3.7970   39.3260  128.3200 O.2    65  ILE65      -0.2715
    101  CB         2.8920   39.8030  125.4280 C.3    65  ILE65       0.0290
    102  CG1        3.6580   41.0380  125.9140 C.3    65  ILE65       0.0022
    103  CG2        1.4300   39.9630  125.8120 C.3    65  ILE65       0.0023
    104  CD1        5.0790   41.0990  125.4030 C.3    65  ILE65       0.0001
    105  N          2.1390   37.8530  128.0010 N.am   66  SER66      -0.1950
    106  CA         1.7310   37.8980  129.4010 C.3    66  SER66       0.1924
    107  C          2.4410   36.9140  130.3220 C.2    66  SER66       0.2314
    108  O          2.3710   35.6960  130.1260 O.2    66  SER66      -0.2863
    109  CB         0.2150   37.6750  129.5060 C.3    66  SER66       0.2116
    110  OG        -0.1710   37.4690  130.8560 O.3    66  SER66      -0.2180
    111  N          7.0420   36.2610  125.3070 N.3    88  GLY88      -0.1210
    112  CA         7.5430   36.9860  124.1530 C.3    88  GLY88       0.1956
    113  C          6.5080   37.8430  123.4370 C.2    88  GLY88       0.2612
    114  O          5.3070   37.7720  123.7290 O.2    88  GLY88      -0.2717
    115  N          6.9900   38.6300  122.4760 N.am   89  ASP89      -0.1959
    116  CA         6.1620   39.5630  121.7100 C.3    89  ASP89       0.1840
    117  C          6.0040   39.1390  120.2510 C.2    89  ASP89       0.2622
    118  O          6.9870   39.0790  119.5040 O.2    89  ASP89      -0.2715
    119  CB         6.8030   40.9520  121.7620 C.3    89  ASP89       0.1450
    120  CG         5.8420   42.0720  121.3730 C.2    89  ASP89       0.3671
    121  OD1        4.8810   41.8340  120.6040 O.co2  89  ASP89      -0.2456
    122  OD2        6.0750   43.2010  121.8410 O.co2  89  ASP89      -0.2456
    123  N          4.7670   38.8630  119.8440 N.am   90  ALA90      -0.1963
    124  CA         4.4850   38.4500  118.4710 C.3    90  ALA90       0.1728
    125  C          4.8790   39.5120  117.4470 C.2    90  ALA90       0.2616
    126  O          5.0470   39.2120  116.2600 O.2    90  ALA90      -0.2715
    127  CB         2.9940   38.1190  118.3160 C.3    90  ALA90       0.0334
    128  N          5.0260   40.7550  117.8960 N.am   91  ARG91      -0.1977
    129  CA         5.3790   41.8340  116.9760 C.3    91  ARG91       0.1597
    130  C          6.8570   41.7990  116.6140 C.2    91  ARG91       0.2287
    131  O          7.2700   42.3780  115.6120 O.2    91  ARG91      -0.2864
    132  CB         4.9850   43.1850  117.5780 C.3    91  ARG91       0.0334
    133  CG         3.4770   43.2890  117.8380 C.3    91  ARG91       0.0492
    134  CD         3.1280   44.4910  118.7000 C.3    91  ARG91       0.2205
    135  NE         3.8690   44.4850  119.9560 N.pl3  91  ARG91      -0.0865
    136  CZ         3.8670   45.4890  120.8250 C.cat  91  ARG91       0.5346
    137  NH1        3.1570   46.5820  120.5770 N.pl3  91  ARG91       0.1354
    138  NH2        4.5960   45.4130  121.9240 N.pl3  91  ARG91       0.1354
    139  N         -4.4750   31.9070  117.1050 N.3   106  ILE106     -0.1231
    140  CA        -5.8950   31.7340  117.4150 C.3   106  ILE106      0.1692
    141  C         -6.5040   32.7410  118.4010 C.2   106  ILE106      0.2592
    142  O         -5.9180   33.0210  119.4370 O.2   106  ILE106     -0.2718
    143  CB        -6.1310   30.2980  117.9990 C.3   106  ILE106      0.0266
    144  CG1       -5.5700   29.2360  117.0410 C.3   106  ILE106      0.0019
    145  CG2       -7.6190   30.0670  118.2380 C.3   106  ILE106      0.0020
    146  CD1       -5.5860   27.8200  117.6070 C.3   106  ILE106      0.0001
    147  N         -7.6930   33.2490  118.0730 N.am  107  ASP107     -0.1960
    148  CA        -8.4390   34.1920  118.9160 C.3   107  ASP107      0.1840
    149  C         -7.6210   35.2650  119.6400 C.2   107  ASP107      0.2622
    150  O         -7.7820   35.4460  120.8330 O.2   107  ASP107     -0.2715
    151  CB        -9.2400   33.4320  119.9920 C.3   107  ASP107      0.1450
    152  CG       -10.3380   32.5550  119.4120 C.2   107  ASP107      0.3671
    153  OD1      -11.0190   33.0040  118.4650 O.co2 107  ASP107     -0.2456
    154  OD2      -10.5320   31.4210  119.9180 O.co2 107  ASP107     -0.2456
    155  N         -6.7540   35.9920  118.9580 N.am  108  SER108     -0.1950
    156  CA        -6.0030   36.9920  119.7040 C.3   108  SER108      0.1924
    157  C         -5.8910   38.3110  118.9660 C.2   108  SER108      0.2314
    158  O         -5.1990   39.2280  119.4120 O.2   108  SER108     -0.2863
    159  CB        -4.6040   36.4570  120.0270 C.3   108  SER108      0.2116
    160  OG        -3.7660   36.5920  118.9050 O.3   108  SER108     -0.2180
    161  N         -7.9180   40.8440  118.6600 N.3   110  VAL110     -0.1231
    162  CA        -8.4290   42.0680  119.2840 C.3   110  VAL110      0.1692
    163  C         -7.3440   42.8720  119.9920 C.2   110  VAL110      0.2592
    164  O         -7.5410   44.0380  120.3010 O.2   110  VAL110     -0.2718
    165  CB        -9.5570   41.7800  120.3100 C.3   110  VAL110      0.0266
    166  CG1      -10.7160   41.0850  119.6170 C.3   110  VAL110      0.0020
    167  CG2       -9.0120   40.9350  121.4750 C.3   110  VAL110      0.0020
    168  N         -6.1940   42.2530  120.2340 N.am  111  HIS111     -0.1962
    169  CA        -5.0920   42.9370  120.9070 C.3   111  HIS111      0.1787
    170  C         -4.2280   43.7590  119.9640 C.2   111  HIS111      0.2620
    171  O         -3.3760   44.5130  120.4190 O.2   111  HIS111     -0.2715
    172  CB        -4.1840   41.9250  121.5980 C.3   111  HIS111      0.0785
    173  CG        -4.7830   41.3000  122.8150 C.ar  111  HIS111      0.0821
    174  ND1       -4.7420   41.9010  124.0540 N.ar  111  HIS111     -0.2267
    175  CD2       -5.4300   40.1230  122.9860 C.ar  111  HIS111      0.1154
    176  CE1       -5.3370   41.1200  124.9380 C.ar  111  HIS111      0.1986
    177  NE2       -5.7630   40.0350  124.3150 N.ar  111  HIS111     -0.2212
    178  N         -4.4430   43.6300  118.6580 N.am  112  PHE112     -0.1974
    179  CA        -3.5930   44.3440  117.7050 C.3   112  PHE112      0.1639
    180  C         -4.2500   45.4000  116.8090 C.2   112  PHE112      0.2290
    181  O         -5.2160   45.1140  116.1090 O.2   112  PHE112     -0.2864
    182  CB        -2.8810   43.3250  116.7970 C.3   112  PHE112      0.0560
    183  CG        -2.1580   42.2380  117.5460 C.ar  112  PHE112     -0.0200
    184  CD1       -0.7750   42.2900  117.7210 C.ar  112  PHE112     -0.0042
    185  CD2       -2.8630   41.1840  118.1160 C.ar  112  PHE112     -0.0042
    186  CE1       -0.1050   41.3090  118.4510 C.ar  112  PHE112     -0.0003
    187  CE2       -2.2000   40.1920  118.8520 C.ar  112  PHE112     -0.0003
    188  CZ        -0.8180   40.2590  119.0190 C.ar  112  PHE112     -0.0000
@<TRIPOS>BOND
     1   131   130    2
     2   181   180    2
     3   126   125    2
     4   130   129    1
     5   182   183    1
     6   182   179    1
     7   180   179    1
     8   129   132    1
     9   129   128    1
    10   144   146    1
    11   144   143    1
    12   139   140    1
    13   140   143    1
    14   140   141    1
    15   125   128   am
    16   125   124    1
    17   183   184   ar
    18   183   185   ar
    19   132   133    1
    20   179   178    1
    21   184   186   ar
    22   133   134    1
    23   143   145    1
    24   147   141   am
    25   147   148    1
    26   185   187   ar
    27   127   124    1
    28   141   142    2
    29   186   188   ar
    30   153   152   ar
    31   124   123    1
    32    48    49    1
    33   178   170   am
    34   161   162    1
    35   134   135    1
    36   187   188   ar
    37   160   159    1
    38   148   149    1
    39   148   151    1
    40   155   149   am
    41   155   156    1
    42   157   158    2
    43   157   156    1
    44    49    50    1
    45    49    52    1
    46   162   163    1
    47   162   165    1
    48    50    51    2
    49   152   154   ar
    50   152   151    1
    51   118   117    2
    52    40    39    2
    53   166   165    1
    54    79    77   ar
    55    79    81   ar
    56   149   150    2
    57   156   159    1
    58    77    76   ar
    59   123   117   am
    60   135   136    2
    61   170   171    2
    62   170   169    1
    63   163   168   am
    64   163   164    2
    65    54    53   ar
    66    52    53    1
    67   168   169    1
    68   117   116    1
    69    81    80   ar
    70   165   167    1
    71   137   136    1
    72    76    75    1
    73    76    78   ar
    74   121   120   ar
    75    53    55   ar
    76    56    57    1
    77    39    38    1
    78    74    73    2
    79    75    72    1
    80    60    57    1
    81   136   138    1
    82   169   172    1
    83    80    78   ar
    84    38    41    1
    85    38    37    1
    86   120   119    1
    87   120   122   ar
    88    57    58    1
    89   172   173    1
    90    73    72    1
    91   116   119    1
    92   116   115    1
    93    72    71    1
    94    88    86    1
    95    41    42    1
    96    47    45    1
    97    86    87    1
    98    86    83    1
    99    59    58    2
   100    58    61   am
   101    42    43    1
   102    44    45    2
   103    44    43    1
   104   115   113   am
   105    85    84    2
   106    61    62    1
   107    82    83    1
   108   173   175   ar
   109   173   174   ar
   110    45    46    1
   111    24    23    1
   112   175   177   ar
   113    83    84    1
   114    62    65    1
   115    62    63    1
   116    84    89   am
   117   113   114    2
   118   113   112    1
   119    65    66    1
   120    21    23   ar
   121    21    19   ar
   122    23    22   ar
   123   174   176   ar
   124   112   111    1
   125   177   176   ar
   126    63    64    2
   127    63    67   am
   128    19    18   ar
   129    89    90    1
   130    28    27    2
   131    90    91    1
   132    90    93    1
   133    12    11    1
   134    67    68    1
   135    22    20   ar
   136    96    94   ar
   137   104   102    1
   138   101   103    1
   139   101   102    1
   140   101    98    1
   141    97    91   am
   142    97    98    1
   143    91    92    2
   144    33    31   ar
   145    33    35   ar
   146    27    26    1
   147    18    20   ar
   148    18    17    1
   149    93    94    1
   150    94    95   ar
   151    36    35    1
   152    98    99    1
   153    31    30   ar
   154    68    69    1
   155    11     9   ar
   156    11    10   ar
   157    35    34   ar
   158    26    25    1
   159    26    29    1
   160     9     7   ar
   161    17    14    1
   162    30    29    1
   163    30    32   ar
   164    10     8   ar
   165    69    70    2
   166    14    13    1
   167    14    15    1
   168    34    32   ar
   169    99   105   am
   170    99   100    2
   171   105   106    1
   172     7     6   ar
   173    16    15    2
   174     8     6   ar
   175     6     5    1
   176   106   109    1
   177   106   107    1
   178   109   110    1
   179   108   107    2
   180     5     2    1
   181     2     1    1
   182     2     3    1
   183     4     3    2
