@<TRIPOS>MOLECULE
tmp/1ve5D00.pdb
 157 150 0 0 0
SMALL
GASTEIGER

@<TRIPOS>ATOM
      1  N          3.5270    7.0550   36.8330 N.3    48  SER48      -0.1202
      2  CA         4.4090    6.6720   37.9220 C.3    48  SER48       0.2020
      3  C          4.3020    5.1750   38.1750 C.2    48  SER48       0.2619
      4  O          3.4250    4.5090   37.6410 O.2    48  SER48      -0.2717
      5  CB         4.0430    7.4360   39.2080 C.3    48  SER48       0.2103
      6  OG         2.8710    6.9050   39.8040 O.3    48  SER48      -0.2182
      7  N          5.2020    4.6570   38.9930 N.am   49  PHE49      -0.1961
      8  CA         5.2130    3.2460   39.3310 C.3    49  PHE49       0.1771
      9  C          3.9670    2.8270   40.1250 C.2    49  PHE49       0.2619
     10  O          3.5880    1.6580   40.0930 O.2    49  PHE49      -0.2715
     11  CB         6.4730    2.9230   40.1430 C.3    49  PHE49       0.0574
     12  CG         6.4450    3.4520   41.5620 C.ar   49  PHE49      -0.0200
     13  CD1        5.8430    2.7150   42.5870 C.ar   49  PHE49      -0.0042
     14  CD2        7.0220    4.6780   41.8710 C.ar   49  PHE49      -0.0042
     15  CE1        5.8200    3.1900   43.9030 C.ar   49  PHE49      -0.0003
     16  CE2        7.0070    5.1660   43.1830 C.ar   49  PHE49      -0.0003
     17  CZ         6.4040    4.4170   44.2000 C.ar   49  PHE49      -0.0000
     18  N          3.3350    3.7830   40.8160 N.am   50  LYS50      -0.1977
     19  CA         2.1560    3.5080   41.6510 C.3    50  LYS50       0.1596
     20  C          1.1140    2.6290   40.9890 C.2    50  LYS50       0.2287
     21  O          0.4310    1.8680   41.6610 O.2    50  LYS50      -0.2864
     22  CB         1.4780    4.8090   42.0950 C.3    50  LYS50       0.0298
     23  CG         2.2670    5.6710   43.0730 C.3    50  LYS50       0.0038
     24  CD         2.3070    5.0880   44.4710 C.3    50  LYS50       0.0206
     25  CE         2.5410    6.1890   45.5220 C.3    50  LYS50       0.1093
     26  NZ         3.6920    6.9560   45.0190 N.3    50  LYS50      -0.1314
     27  N         -2.4680   10.2470   48.0700 N.3    72  SER72      -0.1217
     28  CA        -1.1590   10.8640   48.2530 C.3    72  SER72       0.1889
     29  C         -0.8370   11.7340   47.0300 C.2    72  SER72       0.2288
     30  O         -0.0180   12.6520   47.1070 O.2    72  SER72      -0.2866
     31  CB        -0.0850    9.7790   48.4270 C.3    72  SER72       0.2089
     32  OG         0.0690    8.9930   47.2530 O.3    72  SER72      -0.2183
     33  N         -0.0250   10.6700   43.2470 N.3    74  ASN74      -0.1240
     34  CA         0.1560    9.7120   42.1620 C.3    74  ASN74       0.1653
     35  C         -0.6570    8.4460   42.4790 C.2    74  ASN74       0.2266
     36  O         -1.2470    7.8350   41.5890 O.2    74  ASN74      -0.2867
     37  CB         1.6480    9.3730   41.9970 C.3    74  ASN74       0.1155
     38  CG         2.4180   10.4530   41.2410 C.2    74  ASN74       0.2627
     39  OD1        3.6410   10.5530   41.3540 O.2    74  ASN74      -0.2716
     40  ND2        1.7060   11.2560   40.4640 N.am   74  ASN74      -0.0877
     41  N         -1.3320    3.4490   50.1000 N.3   111  PRO111     -0.2102
     42  CA        -0.2230    3.8000   49.2060 C.3   111  PRO111      0.1504
     43  C          1.0680    3.0160   49.4170 C.2   111  PRO111      0.2575
     44  O          1.8750    2.9060   48.4980 O.2   111  PRO111     -0.2718
     45  CB        -0.0420    5.3050   49.4420 C.3   111  PRO111      0.0282
     46  CG        -0.5230    5.4950   50.8540 C.3   111  PRO111      0.0208
     47  CD        -1.7610    4.6240   50.8820 C.3   111  PRO111      0.0893
     48  N          1.2780    2.4600   50.6050 N.am  112  PHE112     -0.1977
     49  CA         2.5080    1.7060   50.8140 C.3   112  PHE112      0.1639
     50  C          2.5170    0.5970   51.8620 C.2   112  PHE112      0.2290
     51  O          3.2440   -0.3800   51.7030 O.2   112  PHE112     -0.2864
     52  CB         3.6660    2.6730   51.0880 C.3   112  PHE112      0.0560
     53  CG         3.4310    3.6120   52.2510 C.ar  112  PHE112     -0.0200
     54  CD1        3.7800    3.2420   53.5480 C.ar  112  PHE112     -0.0042
     55  CD2        2.8980    4.8830   52.0380 C.ar  112  PHE112     -0.0042
     56  CE1        3.6070    4.1320   54.6160 C.ar  112  PHE112     -0.0003
     57  CE2        2.7200    5.7780   53.0990 C.ar  112  PHE112     -0.0003
     58  CZ         3.0770    5.3990   54.3890 C.ar  112  PHE112     -0.0000
     59  N          4.8470   -2.8430   43.5940 N.3   121  GLN121     -0.1245
     60  CA         5.9140   -1.8830   43.3160 C.3   121  GLN121      0.1566
     61  C          7.2040   -2.6420   43.0030 C.2   121  GLN121      0.2260
     62  O          7.9910   -2.2510   42.1250 O.2   121  GLN121     -0.2867
     63  CB         6.1780   -0.9840   44.5300 C.3   121  GLN121      0.0367
     64  CG         4.9600   -0.4990   45.3170 C.3   121  GLN121      0.0905
     65  CD         3.9490    0.2890   44.5070 C.2   121  GLN121      0.2608
     66  OE1        3.3200    1.2150   45.0260 O.2   121  GLN121     -0.2717
     67  NE2        3.7630   -0.0840   43.2470 N.am  121  GLN121     -0.0878
     68  N         13.8310    6.6450   45.3800 N.3   145  PRO145     -0.2102
     69  CA        13.3400    7.6100   46.3640 C.3   145  PRO145      0.1504
     70  C         12.6240    6.8720   47.5010 C.2   145  PRO145      0.2576
     71  O         12.1390    5.7520   47.3070 O.2   145  PRO145     -0.2718
     72  CB        12.3950    8.4810   45.5390 C.3   145  PRO145      0.0282
     73  CG        11.8590    7.5250   44.5290 C.3   145  PRO145      0.0208
     74  CD        13.0780    6.7450   44.1180 C.3   145  PRO145      0.0893
     75  N         12.5740    7.4860   48.6820 N.am  146  VAL146     -0.1966
     76  CA        11.9050    6.8770   49.8320 C.3   146  VAL146      0.1727
     77  C         10.9220    7.8320   50.5060 C.2   146  VAL146      0.2617
     78  O         11.3040    8.8940   50.9950 O.2   146  VAL146     -0.2715
     79  CB        12.9070    6.4230   50.9220 C.3   146  VAL146      0.0290
     80  CG1       12.1760    5.6060   51.9810 C.3   146  VAL146      0.0023
     81  CG2       14.0250    5.6090   50.3120 C.3   146  VAL146      0.0023
     82  N          9.6550    7.4430   50.5130 N.am  147  GLY147     -0.1940
     83  CA         8.6270    8.2350   51.1580 C.3   147  GLY147      0.2014
     84  C          8.0160    7.3140   52.2010 C.2   147  GLY147      0.2639
     85  O          8.4600    7.2800   53.3450 O.2   147  GLY147     -0.2714
     86  N          7.0140    6.5450   51.7880 N.am  148  GLY148     -0.1939
     87  CA         6.3770    5.6050   52.6900 C.3   148  GLY148      0.2014
     88  C          7.2160    4.3500   52.8490 C.2   148  GLY148      0.2639
     89  O          7.1910    3.7180   53.9030 O.2   148  GLY148     -0.2714
     90  N          7.9560    3.9820   51.8000 N.am  149  GLY149     -0.1939
     91  CA         8.8070    2.8020   51.8600 C.3   149  GLY149      0.2014
     92  C          8.3590    1.6280   51.0050 C.2   149  GLY149      0.2639
     93  O          9.0740    0.6340   50.8820 O.2   149  GLY149     -0.2714
     94  N          7.1800    1.7380   50.4070 N.am  150  GLY150     -0.1939
     95  CA         6.6690    0.6660   49.5730 C.3   150  GLY150      0.2014
     96  C          7.5850    0.3280   48.4060 C.2   150  GLY150      0.2639
     97  O          7.9680   -0.8250   48.2240 O.2   150  GLY150     -0.2714
     98  N          7.9350    1.3310   47.6090 N.am  151  LEU151     -0.1963
     99  CA         8.8160    1.1110   46.4610 C.3   151  LEU151      0.1728
    100  C         10.1360    0.4710   46.8950 C.2   151  LEU151      0.2616
    101  O         10.5060   -0.5900   46.4000 O.2   151  LEU151     -0.2715
    102  CB         9.0870    2.4410   45.7490 C.3   151  LEU151      0.0311
    103  CG        10.1130    2.4740   44.6050 C.3   151  LEU151      0.0022
    104  CD1        9.6850    1.5480   43.4650 C.3   151  LEU151      0.0001
    105  CD2       10.2470    3.9100   44.1170 C.3   151  LEU151      0.0001
    106  N         10.8290    1.1110   47.8330 N.am  152  LEU152     -0.1977
    107  CA        12.1140    0.6180   48.3240 C.3   152  LEU152      0.1596
    108  C         12.0410   -0.7810   48.9400 C.2   152  LEU152      0.2287
    109  O         12.9970   -1.5600   48.8420 O.2   152  LEU152     -0.2864
    110  CB        12.7030    1.5860   49.3570 C.3   152  LEU152      0.0297
    111  CG        14.2000    1.9160   49.2810 C.3   152  LEU152      0.0022
    112  CD1       14.7120    2.2860   50.6680 C.3   152  LEU152      0.0001
    113  CD2       14.9860    0.7360   48.7570 C.3   152  LEU152      0.0001
    114  N          6.3220   13.9890   46.3200 N.3   201  GLY201     -0.1210
    115  CA         5.9350   12.6000   46.4710 C.3   201  GLY201      0.1956
    116  C          6.4360   11.8960   47.7130 C.2   201  GLY201      0.2611
    117  O          5.9120   10.8480   48.0830 O.2   201  GLY201     -0.2717
    118  N          7.4450   12.4530   48.3670 N.am  202  VAL202     -0.1979
    119  CA         7.9720   11.8060   49.5560 C.3   202  VAL202      0.1595
    120  C          7.9700   12.6840   50.7970 C.2   202  VAL202      0.2287
    121  O          8.9380   12.6950   51.5570 O.2   202  VAL202     -0.2864
    122  CB         9.4040   11.2840   49.3170 C.3   202  VAL202      0.0276
    123  CG1        9.3780   10.1930   48.2720 C.3   202  VAL202      0.0022
    124  CG2       10.3140   12.4210   48.8810 C.3   202  VAL202      0.0022
    125  N          6.0210   12.2830   53.3810 N.3   204  THR204     -0.1218
    126  CA         5.2300   11.5340   54.3530 C.3   204  THR204      0.1862
    127  C          5.8820   11.7320   55.7150 C.2   204  THR204      0.2287
    128  O          7.1000   11.8970   55.8080 O.2   204  THR204     -0.2866
    129  CB         5.2100   10.0210   54.0440 C.3   204  THR204      0.1770
    130  OG1        6.4170    9.4200   54.5340 O.3   204  THR204     -0.2211
    131  CG2        5.1120    9.7820   52.5400 C.3   204  THR204      0.0375
    132  N          9.3110   14.1630   37.3140 N.3   246  GLU246     -0.1245
    133  CA         8.9240   15.0270   38.4210 C.3   246  GLU246      0.1567
    134  C         10.0650   15.0660   39.4290 C.2   246  GLU246      0.2260
    135  O         10.8850   14.1490   39.4850 O.2   246  GLU246     -0.2867
    136  CB         7.6090   14.5400   39.0610 C.3   246  GLU246      0.0388
    137  CG         7.6000   13.1290   39.6430 C.3   246  GLU246      0.1160
    138  CD         6.2030   12.7380   40.1240 C.2   246  GLU246      0.3649
    139  OE1        5.4640   12.0630   39.3770 O.co2 246  GLU246     -0.2457
    140  OE2        5.8340   13.1330   41.2470 O.co2 246  GLU246     -0.2457
    141  N         10.5310   14.3650   42.5750 N.3   248  THR248     -0.1218
    142  CA        10.8230   13.2140   43.4280 C.3   248  THR248      0.1862
    143  C         11.4730   12.0880   42.6200 C.2   248  THR248      0.2287
    144  O         12.2930   11.3490   43.1410 O.2   248  THR248     -0.2866
    145  CB         9.5520   12.6910   44.1590 C.3   248  THR248      0.1770
    146  OG1        8.9320   11.6670   43.3800 O.3   248  THR248     -0.2211
    147  CG2        8.5490   13.8200   44.3590 C.3   248  THR248      0.0375
    148  N         11.0940    7.2310   39.4620 N.3   272  SER272     -0.1202
    149  CA         9.7560    6.9430   39.9810 C.3   272  SER272      0.2023
    150  C          8.5540    7.5040   39.2440 C.2   272  SER272      0.2658
    151  O          7.5290    6.8260   39.1310 O.2   272  SER272     -0.2713
    152  CB         9.6900    7.3610   41.4500 C.3   272  SER272      0.2104
    153  OG        10.0080    8.7330   41.5960 O.3   272  SER272     -0.2182
    154  N          8.6500    8.7320   38.7440 N.am  273  GLY273     -0.1731
    155  CA         7.5110    9.2920   38.0450 C.2   273  GLY273      0.1340
    156  C          7.7780   10.5520   37.2490 C.2   273  GLY273      0.2521
    157  O          8.8080   11.2010   37.4190 O.2   273  GLY273     -0.2816
@<TRIPOS>BOND
     1     1     2    1
     2   156   157    2
     3   156   155    1
     4   132   133    1
     5     4     3    2
     6     2     3    1
     7     2     5    1
     8   155   154    2
     9     3     7   am
    10   133   136    1
    11   133   134    1
    12   154   150    1
    13     7     8    1
    14   136   137    1
    15   151   150    2
    16     5     6    1
    17   150   149    1
    18     8     9    1
    19     8    11    1
    20   139   138   ar
    21   134   135    2
    22   148   149    1
    23   137   138    1
    24   149   152    1
    25    10     9    2
    26   138   140   ar
    27     9    18   am
    28    11    12    1
    29    40    38   am
    30    18    19    1
    31    20    19    1
    32    20    21    2
    33    38    39    2
    34    38    37    1
    35   152   153    1
    36    12    14   ar
    37    12    13   ar
    38    36    35    2
    39    19    22    1
    40    14    16   ar
    41    37    34    1
    42    22    23    1
    43    62    61    2
    44    34    35    1
    45    34    33    1
    46   141   142    1
    47    13    15   ar
    48   143   144    2
    49   143   142    1
    50    61    60    1
    51    23    24    1
    52    16    17   ar
    53    67    65   am
    54    60    59    1
    55    60    63    1
    56   146   145    1
    57   142   145    1
    58   104   103    1
    59    15    17   ar
    60   105   103    1
    61    74    73    1
    62    74    68    1
    63   145   147    1
    64    24    25    1
    65    65    66    2
    66    65    64    1
    67    73    72    1
    68    63    64    1
    69   103   102    1
    70    26    25    1
    71    68    69    1
    72    72    69    1
    73   102    99    1
    74   114   115    1
    75    69    70    1
    76   101   100    2
    77    99   100    1
    78    99    98    1
    79   115   116    1
    80   100   106   am
    81    29    30    2
    82    29    28    1
    83    32    31    1
    84    71    70    2
    85    70    75   am
    86    98    96   am
    87   116   117    2
    88   116   118   am
    89   106   107    1
    90    27    28    1
    91    97    96    2
    92    28    31    1
    93   123   122    1
    94   107   108    1
    95   107   110    1
    96   118   119    1
    97    96    95    1
    98    44    43    2
    99    75    76    1
   100   113   111    1
   101   109   108    2
   102   124   122    1
   103    42    43    1
   104    42    45    1
   105    42    41    1
   106   111   110    1
   107   111   112    1
   108   122   119    1
   109    43    48   am
   110    45    46    1
   111   119   120    1
   112    95    94    1
   113    76    77    1
   114    76    79    1
   115    41    47    1
   116    81    79    1
   117    94    92   am
   118    77    82   am
   119    77    78    2
   120    82    83    1
   121    48    49    1
   122   120   121    2
   123    49    52    1
   124    49    50    1
   125    46    47    1
   126    93    92    2
   127    79    80    1
   128    92    91    1
   129    52    53    1
   130    83    84    1
   131    51    50    2
   132    86    84   am
   133    86    87    1
   134    90    91    1
   135    90    88   am
   136    55    53   ar
   137    55    57   ar
   138    84    85    2
   139    53    54   ar
   140   131   129    1
   141    87    88    1
   142    88    89    2
   143    57    58   ar
   144   125   126    1
   145    54    56   ar
   146   129   126    1
   147   129   130    1
   148   126   127    1
   149    58    56   ar
   150   127   128    2
