@<TRIPOS>MOLECULE
tmp/1ve5A00.pdb
 151 145 0 0 0
SMALL
GASTEIGER

@<TRIPOS>ATOM
      1  N         18.2670   17.9050   18.2380 N.3    48  SER48      -0.1202
      2  CA        17.4110   18.1770   17.0870 C.3    48  SER48       0.2020
      3  C         17.9290   17.4650   15.8470 C.2    48  SER48       0.2619
      4  O         19.0570   16.9870   15.8280 O.2    48  SER48      -0.2717
      5  CB        17.3220   19.6900   16.8010 C.3    48  SER48       0.2103
      6  OG        18.4170   20.1460   16.0140 O.3    48  SER48      -0.2182
      7  N         17.0940   17.4170   14.8210 N.am   49  PHE49      -0.1961
      8  CA        17.4400   16.7820   13.5510 C.3    49  PHE49       0.1771
      9  C         18.6110   17.4550   12.8280 C.2    49  PHE49       0.2619
     10  O         19.2830   16.8160   12.0140 O.2    49  PHE49      -0.2715
     11  CB        16.2250   16.7850   12.6170 C.3    49  PHE49       0.0574
     12  CG        15.9290   18.1350   12.0080 C.ar   49  PHE49      -0.0200
     13  CD1       16.5310   18.5260   10.8030 C.ar   49  PHE49      -0.0042
     14  CD2       15.0650   19.0240   12.6460 C.ar   49  PHE49      -0.0042
     15  CE1       16.2760   19.7880   10.2430 C.ar   49  PHE49      -0.0003
     16  CE2       14.8000   20.2870   12.0980 C.ar   49  PHE49      -0.0003
     17  CZ        15.4050   20.6720   10.8940 C.ar   49  PHE49      -0.0000
     18  N         18.8670   18.7300   13.1280 N.am   50  LYS50      -0.1977
     19  CA        19.9400   19.4650   12.4440 C.3    50  LYS50       0.1596
     20  C         21.3240   18.8420   12.4880 C.2    50  LYS50       0.2287
     21  O         22.1850   19.1850   11.6780 O.2    50  LYS50      -0.2864
     22  CB        20.0120   20.9170   12.9370 C.3    50  LYS50       0.0298
     23  CG        18.9270   21.7920   12.3140 C.3    50  LYS50       0.0038
     24  CD        19.2040   23.2660   12.4970 C.3    50  LYS50       0.0206
     25  CE        18.1840   24.1100   11.7450 C.3    50  LYS50       0.1093
     26  NZ        16.9320   23.7310   12.3670 N.3    50  LYS50      -0.1314
     27  N         19.4930   25.7880   17.0530 N.3    74  ASN74      -0.1240
     28  CA        19.8720   24.3860   16.8780 C.3    74  ASN74       0.1653
     29  C         20.9520   24.0700   15.8400 C.2    74  ASN74       0.2266
     30  O         21.7450   23.1540   16.0370 O.2    74  ASN74      -0.2867
     31  CB        18.6070   23.5730   16.5910 C.3    74  ASN74       0.1155
     32  CG        17.7010   23.4640   17.8110 C.2    74  ASN74       0.2627
     33  OD1       16.4860   23.2820   17.6940 O.2    74  ASN74      -0.2716
     34  ND2       18.2960   23.5600   18.9860 N.am   74  ASN74      -0.0877
     35  N         22.1960   26.4760    7.0960 N.3   139  PRO139     -0.2102
     36  CA        21.1830   25.6790    7.7950 C.3   139  PRO139      0.1504
     37  C         20.0990   25.0130    6.9520 C.2   139  PRO139      0.2575
     38  O         19.4090   24.1170    7.4410 O.2   139  PRO139     -0.2718
     39  CB        20.6080   26.6670    8.8180 C.3   139  PRO139      0.0282
     40  CG        20.7700   28.0060    8.1380 C.3   139  PRO139      0.0208
     41  CD        22.1570   27.8860    7.5350 C.3   139  PRO139      0.0893
     42  N         19.9390   25.4210    5.6950 N.am  140  PHE140     -0.1977
     43  CA        18.9030   24.8010    4.8780 C.3   140  PHE140      0.1639
     44  C         19.0080   24.9690    3.3650 C.2   140  PHE140      0.2290
     45  O         18.3790   24.2160    2.6190 O.2   140  PHE140     -0.2864
     46  CB        17.5280   25.2880    5.3490 C.3   140  PHE140      0.0560
     47  CG        17.3170   26.7700    5.1910 C.ar  140  PHE140     -0.0200
     48  CD1       16.8150   27.2930    4.0040 C.ar  140  PHE140     -0.0042
     49  CD2       17.6230   27.6400    6.2290 C.ar  140  PHE140     -0.0042
     50  CE1       16.6200   28.6640    3.8540 C.ar  140  PHE140     -0.0003
     51  CE2       17.4330   29.0150    6.0880 C.ar  140  PHE140     -0.0003
     52  CZ        16.9300   29.5240    4.8980 C.ar  140  PHE140     -0.0000
     53  N         19.1240   16.1060    6.2680 N.3   149  GLN149     -0.1245
     54  CA        17.8710   16.2040    7.0220 C.3   149  GLN149      0.1566
     55  C         16.9030   15.1300    6.5260 C.2   149  GLN149      0.2260
     56  O         16.1620   14.5300    7.3100 O.2   149  GLN149     -0.2867
     57  CB        17.2040   17.5820    6.8520 C.3   149  GLN149      0.0367
     58  CG        18.1090   18.8310    6.8340 C.3   149  GLN149      0.0905
     59  CD        18.9570   19.0380    8.0780 C.2   149  GLN149      0.2608
     60  OE1       19.3440   20.1690    8.3840 O.2   149  GLN149     -0.2717
     61  NE2       19.2750   17.9640    8.7840 N.am  149  GLN149     -0.0878
     62  N          7.4800   20.6450   10.6290 N.3   173  PRO173     -0.2102
     63  CA         7.5120   22.1080   10.7120 C.3   173  PRO173      0.1504
     64  C          8.3240   22.6870    9.5450 C.2   173  PRO173      0.2576
     65  O          9.2000   22.0060    8.9920 O.2   173  PRO173     -0.2718
     66  CB         8.1650   22.3600   12.0650 C.3   173  PRO173      0.0282
     67  CG         9.0940   21.1870   12.1980 C.3   173  PRO173      0.0208
     68  CD         8.2940   20.0300   11.6910 C.3   173  PRO173      0.0893
     69  N          8.0220   23.9280    9.1650 N.am  174  VAL174     -0.1966
     70  CA         8.7260   24.5810    8.0610 C.3   174  VAL174      0.1727
     71  C          9.3180   25.9330    8.4410 C.2   174  VAL174      0.2617
     72  O          8.5980   26.8490    8.8390 O.2   174  VAL174     -0.2715
     73  CB         7.8050   24.8600    6.8560 C.3   174  VAL174      0.0290
     74  CG1        8.6560   25.2490    5.6470 C.3   174  VAL174      0.0023
     75  CG2        6.9400   23.6670    6.5530 C.3   174  VAL174      0.0023
     76  N         10.6320   26.0440    8.3040 N.am  175  GLY175     -0.1940
     77  CA        11.3270   27.2880    8.5740 C.3   175  GLY175      0.2014
     78  C         11.9330   27.6660    7.2310 C.2   175  GLY175      0.2639
     79  O         11.2690   28.2720    6.3920 O.2   175  GLY175     -0.2714
     80  N         13.1880   27.2790    7.0200 N.am  176  GLY176     -0.1939
     81  CA        13.8540   27.5560    5.7580 C.3   176  GLY176      0.2014
     82  C         13.4730   26.5460    4.6770 C.2   176  GLY176      0.2639
     83  O         13.7030   26.7860    3.4870 O.2   176  GLY176     -0.2714
     84  N         12.8900   25.4170    5.0800 N.am  177  GLY177     -0.1939
     85  CA        12.4870   24.4050    4.1150 C.3   177  GLY177      0.2014
     86  C         13.4220   23.2110    3.9480 C.2   177  GLY177      0.2639
     87  O         13.1160   22.2890    3.2010 O.2   177  GLY177     -0.2714
     88  N         14.5580   23.2150    4.6330 N.am  178  GLY178     -0.1939
     89  CA        15.4900   22.1050    4.5200 C.3   178  GLY178      0.2014
     90  C         14.9050   20.7630    4.9560 C.2   178  GLY178      0.2639
     91  O         14.9920   19.7700    4.2310 O.2   178  GLY178     -0.2714
     92  N         14.3030   20.7310    6.1410 N.am  179  LEU179     -0.1963
     93  CA        13.7010   19.5080    6.6580 C.3   179  LEU179      0.1728
     94  C         12.5940   18.9990    5.7420 C.2   179  LEU179      0.2616
     95  O         12.5870   17.8360    5.3360 O.2   179  LEU179     -0.2715
     96  CB        13.1230   19.7570    8.0570 C.3   179  LEU179      0.0311
     97  CG        12.3750   18.5990    8.7300 C.3   179  LEU179      0.0022
     98  CD1       13.3460   17.4710    9.0200 C.3   179  LEU179      0.0001
     99  CD2       11.7300   19.0860   10.0260 C.3   179  LEU179      0.0001
    100  N         11.6630   19.8810    5.4050 N.am  180  LEU180     -0.1977
    101  CA        10.5410   19.5050    4.5660 C.3   180  LEU180      0.1596
    102  C         10.9270   19.0470    3.1580 C.2   180  LEU180      0.2287
    103  O         10.3030   18.1350    2.6100 O.2   180  LEU180     -0.2864
    104  CB         9.5470   20.6620    4.4850 C.3   180  LEU180      0.0297
    105  CG         8.2050   20.3730    3.8180 C.3   180  LEU180      0.0022
    106  CD1        7.5000   19.2380    4.5600 C.3   180  LEU180      0.0001
    107  CD2        7.3510   21.6330    3.8340 C.3   180  LEU180      0.0001
    108  N         12.3880   28.2890   16.2720 N.3   229  GLY229     -0.1210
    109  CA        13.1570   27.6590   15.2150 C.3   229  GLY229      0.1956
    110  C         12.6720   27.9070   13.7990 C.2   229  GLY229      0.2611
    111  O         13.3570   27.5480   12.8450 O.2   229  GLY229     -0.2717
    112  N         11.4990   28.5100   13.6450 N.am  230  VAL230     -0.1979
    113  CA        10.9810   28.7730   12.3080 C.3   230  VAL230      0.1595
    114  C         10.6180   30.2390   12.0730 C.2   230  VAL230      0.2287
    115  O          9.6220   30.5430   11.4110 O.2   230  VAL230     -0.2864
    116  CB         9.7540   27.8870   12.0060 C.3   230  VAL230      0.0276
    117  CG1       10.1950   26.4350   11.8450 C.3   230  VAL230      0.0022
    118  CG2        8.7380   28.0040   13.1270 C.3   230  VAL230      0.0022
    119  N         12.3350   32.1800   10.3390 N.3   232  THR232     -0.1218
    120  CA        13.0280   32.5350    9.1090 C.3   232  THR232      0.1862
    121  C         12.1410   33.4560    8.2790 C.2   232  THR232      0.2287
    122  O         10.9560   33.1870    8.0950 O.2   232  THR232     -0.2866
    123  CB        13.3620   31.2730    8.2840 C.3   232  THR232      0.1770
    124  OG1       12.1450   30.6010    7.9280 O.3   232  THR232     -0.2211
    125  CG2       14.2340   30.3210    9.0970 C.3   232  THR232      0.0375
    126  N         10.6130   20.9870   22.1690 N.3   274  GLU274     -0.1245
    127  CA        10.5700   22.4390   22.1070 C.3   274  GLU274      0.1567
    128  C          9.3270   22.8360   21.3280 C.2   274  GLU274      0.2260
    129  O          8.7850   22.0390   20.5630 O.2   274  GLU274     -0.2867
    130  CB        11.8530   23.0030   21.4800 C.3   274  GLU274      0.0388
    131  CG        12.1660   22.5430   20.0700 C.3   274  GLU274      0.1160
    132  CD        13.4830   23.1160   19.5780 C.2   274  GLU274      0.3649
    133  OE1       14.5390   22.4620   19.7480 O.co2 274  GLU274     -0.2457
    134  OE2       13.4560   24.2380   19.0360 O.co2 274  GLU274     -0.2457
    135  N          8.6230   24.5740   18.6030 N.3   276  THR276     -0.1218
    136  CA         8.5340   24.3960   17.1660 C.3   276  THR276      0.1862
    137  C          8.4590   22.8980   16.8240 C.2   276  THR276      0.2287
    138  O          7.8220   22.5130   15.8540 O.2   276  THR276     -0.2866
    139  CB         9.6830   25.1700   16.4190 C.3   276  THR276      0.1770
    140  OG1       10.1330   24.4170   15.2880 O.3   276  THR276     -0.2211
    141  CG2       10.8230   25.4970   17.3450 C.3   276  THR276      0.0375
    142  N         10.6950   17.6250   15.5450 N.3   300  SER300     -0.1202
    143  CA        11.9900   18.1830   15.1650 C.3   300  SER300      0.2023
    144  C         13.0370   18.4370   16.2380 C.2   300  SER300      0.2658
    145  O         14.2320   18.2690   15.9830 O.2   300  SER300     -0.2713
    146  CB        11.7590   19.4670   14.3580 C.3   300  SER300      0.2104
    147  OG        10.8250   20.3160   15.0020 O.3   300  SER300     -0.2182
    148  N         12.6260   18.8350   17.4380 N.am  301  GLY301     -0.1731
    149  CA        13.6290   19.0970   18.4500 C.2   301  GLY301      0.1340
    150  C         13.1350   19.1300   19.8830 C.2   301  GLY301      0.2521
    151  O         11.9390   19.2820   20.1380 O.2   301  GLY301     -0.2816
@<TRIPOS>BOND
     1   103   102    2
     2    45    44    2
     3   102   101    1
     4    87    86    2
     5    44    43    1
     6    83    82    2
     7   105   107    1
     8   105   104    1
     9   105   106    1
    10    50    48   ar
    11    50    52   ar
    12    86    85    1
    13    86    88   am
    14    48    47   ar
    15    85    84    1
    16    91    90    2
    17   104   101    1
    18    89    88    1
    19    89    90    1
    20   101   100    1
    21    82    84   am
    22    82    81    1
    23    43    46    1
    24    43    42    1
    25    52    51   ar
    26    90    92   am
    27    47    46    1
    28    47    49   ar
    29    95    94    2
    30   100    94   am
    31    74    73    1
    32    42    37   am
    33    94    93    1
    34    81    80    1
    35    51    49   ar
    36    92    93    1
    37    53    54    1
    38    79    78    2
    39    55    54    1
    40    55    56    2
    41    75    73    1
    42    93    96    1
    43    58    57    1
    44    58    59    1
    45    57    54    1
    46    73    70    1
    47    37    38    2
    48    37    36    1
    49    80    78   am
    50    35    41    1
    51    35    36    1
    52    78    77    1
    53    41    40    1
    54    36    39    1
    55   124   123    1
    56    96    97    1
    57    70    71    1
    58    70    69    1
    59    59    60    2
    60    59    61   am
    61   122   121    2
    62    40    39    1
    63   121   120    1
    64   123   125    1
    65   123   120    1
    66    76    71   am
    67    76    77    1
    68    71    72    2
    69    97    98    1
    70    97    99    1
    71    65    64    2
    72   120   119    1
    73    69    64   am
    74    64    63    1
    75    15    13   ar
    76    15    17   ar
    77    62    63    1
    78    62    68    1
    79    63    66    1
    80    13    12   ar
    81    17    16   ar
    82   115   114    2
    83    21    20    2
    84    68    67    1
    85    25    26    1
    86    25    24    1
    87   117   116    1
    88   116   113    1
    89   116   118    1
    90    12    11    1
    91    12    14   ar
    92    10     9    2
    93    66    67    1
    94   114   113    1
    95    16    14   ar
    96   113   112    1
    97    23    24    1
    98    23    22    1
    99    19    20    1
   100    19    22    1
   101    19    18    1
   102    11     8    1
   103     9    18   am
   104     9     8    1
   105   111   110    2
   106     8     7    1
   107   112   110   am
   108   110   109    1
   109   146   147    1
   110   146   143    1
   111     7     3   am
   112   143   142    1
   113   143   144    1
   114   109   108    1
   115   140   139    1
   116     4     3    2
   117    29    30    2
   118    29    28    1
   119     3     2    1
   120   138   137    2
   121   145   144    2
   122     6     5    1
   123   144   148    1
   124   139   136    1
   125   139   141    1
   126    31    28    1
   127    31    32    1
   128     5     2    1
   129   137   136    1
   130    28    27    1
   131     2     1    1
   132   136   135    1
   133   148   149    2
   134    33    32    2
   135    32    34   am
   136   149   150    1
   137   134   132   ar
   138   132   133   ar
   139   132   131    1
   140   150   151    2
   141   131   130    1
   142   129   128    2
   143   128   127    1
   144   130   127    1
   145   127   126    1
