@<TRIPOS>MOLECULE
tmp/1ve6B00.pdb
 132 128 0 0 0
SMALL
GASTEIGER

@<TRIPOS>ATOM
      1  N         23.3670   45.5840   12.5810 N.3    13  ILE13      -0.1245
      2  CA        22.2650   44.7150   12.9880 C.3    13  ILE13       0.1561
      3  C         21.8290   43.8060   11.8440 C.2    13  ILE13       0.2260
      4  O         21.4920   42.6320   12.0410 O.2    13  ILE13      -0.2867
      5  CB        21.0580   45.5640   13.4660 C.3    13  ILE13       0.0252
      6  CG1       21.3140   46.0550   14.8860 C.3    13  ILE13       0.0019
      7  CG2       19.7670   44.7490   13.4170 C.3    13  ILE13       0.0019
      8  CD1       20.3750   47.1740   15.3330 C.3    13  ILE13       0.0001
      9  N         23.4520   36.5270   10.8700 N.3    17  LYS17      -0.1231
     10  CA        24.1300   35.8140   11.9620 C.3    17  LYS17       0.1693
     11  C         23.4890   34.4430   12.1640 C.2    17  LYS17       0.2592
     12  O         22.2680   34.3410   12.2920 O.2    17  LYS17      -0.2718
     13  CB        24.0350   36.6430   13.2520 C.3    17  LYS17       0.0285
     14  CG        24.6020   38.0590   13.1130 C.3    17  LYS17       0.0035
     15  CD        24.2600   38.9320   14.3210 C.3    17  LYS17       0.0206
     16  CE        24.6340   40.3950   14.0800 C.3    17  LYS17       0.1093
     17  NZ        23.8370   41.0190   12.9750 N.3    17  LYS17      -0.1314
     18  N         24.3090   33.3980   12.2170 N.am   18  TYR18      -0.1962
     19  CA        23.7870   32.0420   12.3520 C.3    18  TYR18       0.1771
     20  C         24.2630   31.2280   13.5510 C.2    18  TYR18       0.2620
     21  O         25.3820   31.3870   14.0340 O.2    18  TYR18      -0.2715
     22  CB        24.1070   31.2410   11.0860 C.3    18  TYR18       0.0574
     23  CG        23.6780   31.9110    9.8080 C.ar   18  TYR18      -0.0198
     24  CD1       24.5060   32.8290    9.1700 C.ar   18  TYR18      -0.0009
     25  CD2       22.4260   31.6510    9.2550 C.ar   18  TYR18      -0.0009
     26  CE1       24.1000   33.4780    8.0030 C.ar   18  TYR18       0.0417
     27  CE2       22.0040   32.2910    8.0930 C.ar   18  TYR18       0.0417
     28  CZ        22.8460   33.2060    7.4710 C.ar   18  TYR18       0.1957
     29  OH        22.4210   33.8560    6.3250 O.3    18  TYR18      -0.2866
     30  N         23.3920   30.3390   14.0120 N.am   19  SER19      -0.1950
     31  CA        23.7020   29.4540   15.1230 C.3    19  SER19       0.1924
     32  C         23.3470   28.0400   14.6570 C.2    19  SER19       0.2314
     33  O         22.3690   27.8450   13.9320 O.2    19  SER19      -0.2863
     34  CB        22.8810   29.8460   16.3630 C.3    19  SER19       0.2116
     35  OG        21.4910   29.7720   16.0960 O.3    19  SER19      -0.2180
     36  N         19.5580   28.3320   12.8400 N.3    32  VAL32      -0.1231
     37  CA        18.6900   29.4450   13.2160 C.3    32  VAL32       0.1692
     38  C         19.4500   30.6930   12.8110 C.2    32  VAL32       0.2593
     39  O         20.6040   30.8650   13.1790 O.2    32  VAL32      -0.2718
     40  CB        18.4130   29.4720   14.7280 C.3    32  VAL32       0.0266
     41  CG1       17.7490   30.8050   15.1270 C.3    32  VAL32       0.0020
     42  CG2       17.5060   28.3020   15.0930 C.3    32  VAL32       0.0020
     43  N         18.8160   31.5590   12.0350 N.am   33  GLY33      -0.1942
     44  CA        19.5150   32.7470   11.5930 C.3    33  GLY33       0.2014
     45  C         18.7650   34.0420   11.7850 C.2    33  GLY33       0.2638
     46  O         17.5380   34.0900   11.6930 O.2    33  GLY33      -0.2714
     47  N         19.5120   35.0910   12.1070 N.am   34  PHE34      -0.1973
     48  CA        18.9380   36.4170   12.2550 C.3    34  PHE34       0.1639
     49  C         19.2150   36.9520   10.8460 C.2    34  PHE34       0.2290
     50  O         20.3330   37.3720   10.5400 O.2    34  PHE34      -0.2864
     51  CB        19.7130   37.2180   13.3140 C.3    34  PHE34       0.0560
     52  CG        19.0120   38.4810   13.7830 C.ar   34  PHE34      -0.0200
     53  CD1       19.7440   39.5270   14.3510 C.ar   34  PHE34      -0.0042
     54  CD2       17.6290   38.6160   13.6850 C.ar   34  PHE34      -0.0042
     55  CE1       19.1020   40.6890   14.8130 C.ar   34  PHE34      -0.0003
     56  CE2       16.9820   39.7600   14.1400 C.ar   34  PHE34      -0.0003
     57  CZ        17.7150   40.8020   14.7050 C.ar   34  PHE34      -0.0000
     58  N         14.3880   36.5790   13.3010 N.3    39  VAL39      -0.1245
     59  CA        14.9380   35.2740   13.6680 C.3    39  VAL39       0.1561
     60  C         14.1220   34.1880   12.9720 C.2    39  VAL39       0.2260
     61  O         12.9140   34.0890   13.1830 O.2    39  VAL39      -0.2867
     62  CB        14.8760   35.0430   15.2000 C.3    39  VAL39       0.0252
     63  CG1       15.4660   33.6650   15.5460 C.3    39  VAL39       0.0019
     64  CG2       15.6420   36.1410   15.9290 C.3    39  VAL39       0.0019
     65  N         28.4120   35.6210   14.1650 N.3   299  PRO299     -0.2116
     66  CA        28.2180   34.1630   14.1700 C.3   299  PRO299      0.1372
     67  C         27.9730   33.5770   12.7780 C.2   299  PRO299      0.2244
     68  O         27.1530   34.0790   12.0130 O.2   299  PRO299     -0.2868
     69  CB        27.0280   33.9730   15.1030 C.3   299  PRO299      0.0268
     70  CG        27.1990   35.0970   16.0840 C.3   299  PRO299      0.0207
     71  CD        27.5770   36.2670   15.1910 C.3   299  PRO299      0.0892
     72  N         31.3450   37.7910   18.9310 N.3   371  TRP371     -0.1241
     73  CA        30.6760   38.9530   18.3730 C.3   371  TRP371      0.1605
     74  C         29.6890   39.5990   19.3550 C.2   371  TRP371      0.2264
     75  O         28.9560   38.9230   20.0860 O.2   371  TRP371     -0.2867
     76  CB        29.9480   38.5730   17.0750 C.3   371  TRP371      0.0550
     77  CG        29.1940   39.7190   16.4470 C.ar  371  TRP371      0.0003
     78  CD1       27.8460   39.9610   16.5210 C.ar  371  TRP371      0.0946
     79  CD2       29.7520   40.7950   15.6800 C.ar  371  TRP371      0.0152
     80  NE1       27.5370   41.1210   15.8480 N.ar  371  TRP371     -0.2442
     81  CE2       28.6880   41.6530   15.3220 C.ar  371  TRP371      0.0810
     82  CE3       31.0480   41.1170   15.2580 C.ar  371  TRP371      0.0012
     83  CZ2       28.8800   42.8130   14.5640 C.ar  371  TRP371      0.0191
     84  CZ3       31.2420   42.2750   14.5010 C.ar  371  TRP371      0.0001
     85  CH2       30.1530   43.1090   14.1650 C.ar  371  TRP371      0.0015
     86  N         27.0750   42.9220   18.9400 N.3   373  THR373     -0.1203
     87  CA        26.5920   44.0360   18.1250 C.3   373  THR373      0.1994
     88  C         26.6770   45.3670   18.8670 C.2   373  THR373      0.2617
     89  O         27.0100   46.3970   18.2690 O.2   373  THR373     -0.2717
     90  CB        25.1360   43.7900   17.6610 C.3   373  THR373      0.1784
     91  OG1       25.1090   42.5990   16.8710 O.3   373  THR373     -0.2211
     92  CG2       24.6130   44.9520   16.8050 C.3   373  THR373      0.0376
     93  N         26.3870   45.3570   20.1660 N.am  374  PHE374     -0.1975
     94  CA        26.4610   46.5930   20.9200 C.3   374  PHE374      0.1639
     95  C         27.8760   47.1530   20.8890 C.2   374  PHE374      0.2290
     96  O         28.0680   48.3440   20.6460 O.2   374  PHE374     -0.2864
     97  CB        26.0520   46.3990   22.3820 C.3   374  PHE374      0.0560
     98  CG        24.6690   45.8480   22.5640 C.ar  374  PHE374     -0.0200
     99  CD1       24.4190   44.4860   22.4050 C.ar  374  PHE374     -0.0042
    100  CD2       23.6170   46.6870   22.9030 C.ar  374  PHE374     -0.0042
    101  CE1       23.1200   43.9810   22.5880 C.ar  374  PHE374     -0.0003
    102  CE2       22.3230   46.1950   23.0870 C.ar  374  PHE374     -0.0003
    103  CZ        22.0710   44.8560   22.9350 C.ar  374  PHE374     -0.0000
    104  N         14.6310   40.2570   21.9770 N.3   551  ILE551     -0.1245
    105  CA        14.3690   40.9140   20.6960 C.3   551  ILE551      0.1561
    106  C         14.5050   39.9370   19.5230 C.2   551  ILE551      0.2260
    107  O         15.4950   39.2250   19.4380 O.2   551  ILE551     -0.2867
    108  CB        15.3520   42.0940   20.4940 C.3   551  ILE551      0.0252
    109  CG1       15.2210   43.0820   21.6630 C.3   551  ILE551      0.0019
    110  CG2       15.0950   42.7700   19.1440 C.3   551  ILE551      0.0019
    111  CD1       13.8160   43.6610   21.8390 C.3   551  ILE551      0.0001
    112  N         15.5940   45.5890   17.2780 N.3   557  ALA557     -0.1245
    113  CA        17.0120   45.6930   17.6300 C.3   557  ALA557      0.1562
    114  C         17.4580   47.1510   17.4820 C.2   557  ALA557      0.2260
    115  O         18.2110   47.6670   18.3050 O.2   557  ALA557     -0.2867
    116  CB        17.8530   44.8050   16.7310 C.3   557  ALA557      0.0290
    117  N         16.2080   49.3720   20.4260 N.3   560  ILE560     -0.1231
    118  CA        16.8240   49.3130   21.7480 C.3   560  ILE560      0.1692
    119  C         18.2710   49.7730   21.7420 C.2   560  ILE560      0.2591
    120  O         18.8170   50.0940   22.7960 O.2   560  ILE560     -0.2718
    121  CB        16.7690   47.8970   22.3840 C.3   560  ILE560      0.0266
    122  CG1       17.6390   46.9320   21.6010 C.3   560  ILE560      0.0019
    123  CG2       15.3410   47.3980   22.4440 C.3   560  ILE560      0.0020
    124  CD1       18.5760   46.1810   22.4880 C.3   560  ILE560      0.0001
    125  N         18.8900   49.8100   20.5610 N.am  561  LEU561     -0.1980
    126  CA        20.2900   50.2280   20.4430 C.3   561  LEU561      0.1596
    127  C         20.4790   51.6750   19.9730 C.2   561  LEU561      0.2287
    128  O         21.2140   52.4420   20.5940 O.2   561  LEU561     -0.2864
    129  CB        21.0540   49.2760   19.4980 C.3   561  LEU561      0.0297
    130  CG        22.5280   49.5870   19.1940 C.3   561  LEU561      0.0022
    131  CD1       23.3060   49.6930   20.4850 C.3   561  LEU561      0.0001
    132  CD2       23.1360   48.4870   18.2900 C.3   561  LEU561      0.0001
@<TRIPOS>BOND
     1    29    28    1
     2    28    26   ar
     3    28    27   ar
     4    26    24   ar
     5    27    25   ar
     6    24    23   ar
     7    25    23   ar
     8    23    22    1
     9    50    49    2
    10    49    48    1
    11     9    10    1
    12    22    19    1
    13    44    45    1
    14    44    43    1
    15    46    45    2
    16    45    47   am
    17     3     4    2
    18     3     2    1
    19    10    11    1
    20    10    13    1
    21    68    67    2
    22    43    38   am
    23    47    48    1
    24    11    18   am
    25    11    12    2
    26    18    19    1
    27    48    51    1
    28    19    20    1
    29     1     2    1
    30    67    66    1
    31    38    39    2
    32    38    37    1
    33    36    37    1
    34    60    61    2
    35    60    59    1
    36    17    16    1
    37     2     5    1
    38    14    13    1
    39    14    15    1
    40    37    40    1
    41    58    59    1
    42    51    52    1
    43     7     5    1
    44     5     6    1
    45    20    30   am
    46    20    21    2
    47    59    62    1
    48    54    52   ar
    49    54    56   ar
    50    52    53   ar
    51    33    32    2
    52    30    31    1
    53    16    15    1
    54    56    57   ar
    55    65    66    1
    56    65    71    1
    57    85    84   ar
    58    85    83   ar
    59    66    69    1
    60    53    55   ar
    61    84    82   ar
    62    83    81   ar
    63    32    31    1
    64    57    55   ar
    65    40    42    1
    66    40    41    1
    67     6     8    1
    68    69    70    1
    69    31    34    1
    70    71    70    1
    71    62    63    1
    72    62    64    1
    73    82    79   ar
    74    81    79   ar
    75    81    80   ar
    76    79    77   ar
    77    80    78   ar
    78    35    34    1
    79    77    78   ar
    80    77    76    1
    81   116   113    1
    82    92    90    1
    83    91    90    1
    84    76    73    1
    85   112   113    1
    86   114   113    1
    87   114   115    2
    88    90    87    1
    89    87    88    1
    90    87    86    1
    91    89    88    2
    92   132   130    1
    93    73    72    1
    94    73    74    1
    95    88    93   am
    96   110   108    1
    97   130   129    1
    98   130   131    1
    99    74    75    2
   100   107   106    2
   101   129   126    1
   102   106   105    1
   103   127   126    1
   104   127   128    2
   105    93    94    1
   106   117   118    1
   107   126   125    1
   108   108   105    1
   109   108   109    1
   110   125   119   am
   111    96    95    2
   112   105   104    1
   113    95    94    1
   114    94    97    1
   115   122   121    1
   116   122   124    1
   117   109   111    1
   118   119   118    1
   119   119   120    2
   120   118   121    1
   121    97    98    1
   122   121   123    1
   123    99    98   ar
   124    99   101   ar
   125    98   100   ar
   126   101   103   ar
   127   100   102   ar
   128   103   102   ar
