@<TRIPOS>MOLECULE
tmp/1ve7A00.pdb
 121 117 0 0 0
SMALL
GASTEIGER

@<TRIPOS>ATOM
      1  N         30.1360  125.0400   17.7760 N.3   360  GLY360     -0.1210
      2  CA        30.0090  125.2110   19.2020 C.3   360  GLY360      0.1956
      3  C         29.2860  126.5070   19.5030 C.2   360  GLY360      0.2612
      4  O         28.6320  127.0680   18.6180 O.2   360  GLY360     -0.2717
      5  N         29.4020  126.9750   20.7480 N.am  361  GLY361     -0.1956
      6  CA        28.7500  128.2030   21.1490 C.3   361  GLY361      0.1869
      7  C         27.9140  128.0770   22.4180 C.2   361  GLY361      0.2309
      8  O         28.4420  128.0440   23.5310 O.2   361  GLY361     -0.2863
      9  N         33.0240  121.1900   21.8120 N.3   437  SER437     -0.1202
     10  CA        32.2900  122.0830   22.7210 C.3   437  SER437      0.2020
     11  C         30.7950  121.8300   22.7110 C.2   437  SER437      0.2618
     12  O         30.3560  120.7150   22.9960 O.2   437  SER437     -0.2717
     13  CB        32.5590  123.5450   22.3500 C.3   437  SER437      0.2103
     14  OG        32.7040  124.3290   23.5110 O.3   437  SER437     -0.2182
     15  N         30.0020  122.8560   22.4090 N.am  438  TYR438     -0.1975
     16  CA        28.5700  122.6360   22.3570 C.3   438  TYR438      0.1639
     17  C         28.3580  121.6400   21.2190 C.2   438  TYR438      0.2290
     18  O         27.4200  120.8490   21.2510 O.2   438  TYR438     -0.2864
     19  CB        27.7980  123.9190   22.0700 C.3   438  TYR438      0.0560
     20  CG        26.3500  123.8310   22.5320 C.ar  438  TYR438     -0.0198
     21  CD1       26.0150  123.9830   23.8860 C.ar  438  TYR438     -0.0009
     22  CD2       25.3270  123.5250   21.6320 C.ar  438  TYR438     -0.0009
     23  CE1       24.7030  123.8250   24.3230 C.ar  438  TYR438      0.0417
     24  CE2       24.0180  123.3670   22.0550 C.ar  438  TYR438      0.0417
     25  CZ        23.7070  123.5120   23.4010 C.ar  438  TYR438      0.1957
     26  OH        22.4100  123.3120   23.8300 O.3   438  TYR438     -0.2866
     27  N         30.3010  119.0050   26.4630 N.3   463  VAL463     -0.1245
     28  CA        29.5360  119.2650   27.6840 C.3   463  VAL463      0.1561
     29  C         28.9670  117.8940   28.0430 C.2   463  VAL463      0.2260
     30  O         28.4310  117.2170   27.1670 O.2   463  VAL463     -0.2867
     31  CB        28.3770  120.2600   27.4440 C.3   463  VAL463      0.0252
     32  CG1       27.3860  120.1880   28.5880 C.3   463  VAL463      0.0019
     33  CG2       28.9290  121.6800   27.3200 C.3   463  VAL463      0.0019
     34  N         25.3740  119.2530   33.0460 N.3   466  TRP466     -0.1241
     35  CA        25.2130  120.6370   33.4430 C.3   466  TRP466      0.1605
     36  C         25.3590  120.8300   34.9600 C.2   466  TRP466      0.2264
     37  O         25.9420  121.8220   35.4020 O.2   466  TRP466     -0.2867
     38  CB        23.8630  121.1850   32.9710 C.3   466  TRP466      0.0550
     39  CG        23.6890  121.2170   31.4770 C.ar  466  TRP466      0.0003
     40  CD1       22.9420  120.3560   30.7140 C.ar  466  TRP466      0.0946
     41  CD2       24.3040  122.1280   30.5560 C.ar  466  TRP466      0.0152
     42  NE1       23.0600  120.6750   29.3820 N.ar  466  TRP466     -0.2442
     43  CE2       23.8910  121.7550   29.2570 C.ar  466  TRP466      0.0810
     44  CE3       25.1680  123.2250   30.6990 C.ar  466  TRP466      0.0012
     45  CZ2       24.3130  122.4360   28.1110 C.ar  466  TRP466      0.0191
     46  CZ3       25.5890  123.9050   29.5440 C.ar  466  TRP466      0.0001
     47  CH2       25.1570  123.5010   28.2740 C.ar  466  TRP466      0.0015
     48  N         29.2990  120.3300   35.8410 N.3   469  MET469     -0.1245
     49  CA        30.0550  121.3700   35.1550 C.3   469  MET469      0.1570
     50  C         29.7850  122.6850   35.8450 C.2   469  MET469      0.2261
     51  O         30.6580  123.5160   35.9810 O.2   469  MET469     -0.2867
     52  CB        29.6290  121.4800   33.6970 C.3   469  MET469      0.0387
     53  CG        30.2080  122.6930   32.9800 C.3   469  MET469      0.0595
     54  SD        29.6140  122.8610   31.2900 S.3   469  MET469     -0.1393
     55  CE        30.8270  121.9950   30.4200 C.3   469  MET469      0.0692
     56  N         30.8860  131.3810   33.5390 N.3   477  PHE477     -0.1241
     57  CA        30.1440  130.2100   33.0420 C.3   477  PHE477      0.1605
     58  C         28.9100  129.8040   33.8560 C.2   477  PHE477      0.2264
     59  O         27.8640  129.4980   33.2660 O.2   477  PHE477     -0.2867
     60  CB        31.0870  129.0010   32.8530 C.3   477  PHE477      0.0534
     61  CG        31.9650  129.1270   31.6440 C.ar  477  PHE477     -0.0203
     62  CD1       33.2040  129.7520   31.7310 C.ar  477  PHE477     -0.0042
     63  CD2       31.4940  128.7350   30.3880 C.ar  477  PHE477     -0.0042
     64  CE1       33.9620  129.9960   30.5930 C.ar  477  PHE477     -0.0003
     65  CE2       32.2410  128.9680   29.2290 C.ar  477  PHE477     -0.0003
     66  CZ        33.4760  129.6010   29.3250 C.ar  477  PHE477     -0.0000
     67  N         26.3890  131.9210   32.7340 N.3   480  PHE480     -0.1227
     68  CA        26.0480  131.5810   31.3660 C.3   480  PHE480      0.1736
     69  C         25.1720  130.3270   31.3270 C.2   480  PHE480      0.2595
     70  O         24.2130  130.2650   30.5590 O.2   480  PHE480     -0.2718
     71  CB        27.3090  131.3480   30.5480 C.3   480  PHE480      0.0547
     72  CG        27.0290  130.9920   29.1420 C.ar  480  PHE480     -0.0202
     73  CD1       26.4930  131.9350   28.2720 C.ar  480  PHE480     -0.0042
     74  CD2       27.1900  129.6960   28.7020 C.ar  480  PHE480     -0.0042
     75  CE1       26.1070  131.5880   26.9820 C.ar  480  PHE480     -0.0003
     76  CE2       26.8070  129.3360   27.4070 C.ar  480  PHE480     -0.0003
     77  CZ        26.2610  130.2880   26.5500 C.ar  480  PHE480     -0.0000
     78  N         25.4990  129.3360   32.1620 N.am  481  ILE481     -0.1980
     79  CA        24.7320  128.0820   32.2440 C.3   481  ILE481      0.1595
     80  C         23.3380  128.3510   32.8180 C.2   481  ILE481      0.2287
     81  O         22.3620  127.7290   32.4030 O.2   481  ILE481     -0.2864
     82  CB        25.4280  127.0220   33.1750 C.3   481  ILE481      0.0276
     83  CG1       26.6950  126.4730   32.5240 C.3   481  ILE481      0.0022
     84  CG2       24.4580  125.9110   33.5210 C.3   481  ILE481      0.0022
     85  CD1       27.4020  125.3900   33.3340 C.3   481  ILE481      0.0001
     86  N         21.3610  129.3900   29.7860 N.3   484  LEU484     -0.1245
     87  CA        21.0290  128.4010   28.7650 C.3   484  LEU484      0.1561
     88  C         19.9550  127.4510   29.2480 C.2   484  LEU484      0.2260
     89  O         19.0160  127.1360   28.5240 O.2   484  LEU484     -0.2867
     90  CB        22.2780  127.6050   28.3690 C.3   484  LEU484      0.0270
     91  CG        22.6720  127.5730   26.8890 C.3   484  LEU484      0.0019
     92  CD1       22.6090  128.9890   26.2920 C.3   484  LEU484      0.0001
     93  CD2       24.1030  127.0030   26.7560 C.3   484  LEU484      0.0001
     94  N         36.5130  125.1820   30.6390 N.3   518  ARG518     -0.1231
     95  CA        35.2270  125.6130   30.1080 C.3   518  ARG518      0.1694
     96  C         34.2870  124.4260   30.1910 C.2   518  ARG518      0.2592
     97  O         33.1490  124.5540   30.6380 O.2   518  ARG518     -0.2718
     98  CB        35.3660  126.0830   28.6700 C.3   518  ARG518      0.0321
     99  CG        36.3240  127.2220   28.5670 C.3   518  ARG518      0.0489
    100  CD        35.9720  128.1020   27.4600 C.3   518  ARG518      0.2205
    101  NE        37.1790  128.6250   26.8670 N.pl3 518  ARG518     -0.0865
    102  CZ        37.2010  129.3210   25.7360 C.cat 518  ARG518      0.5346
    103  NH1       36.0610  129.5760   25.0960 N.pl3 518  ARG518      0.1354
    104  NH2       38.3580  129.7310   25.2300 N.pl3 518  ARG518      0.1354
    105  N         34.7950  123.2720   29.7580 N.am  519  THR519     -0.1953
    106  CA        34.0830  121.9940   29.7730 C.3   519  THR519      0.1897
    107  C         35.0870  121.0550   30.4370 C.2   519  THR519      0.2313
    108  O         35.8640  120.3720   29.7750 O.2   519  THR519     -0.2863
    109  CB        33.7480  121.5360   28.3340 C.3   519  THR519      0.1794
    110  OG1       34.9410  121.4980   27.5470 O.3   519  THR519     -0.2208
    111  CG2       32.8020  122.5160   27.6820 C.3   519  THR519      0.0378
    112  N         40.7330  124.4950   26.7600 N.3   548  HIS548     -0.1241
    113  CA        39.7710  124.6870   25.7000 C.3   548  HIS548      0.1621
    114  C         40.3590  125.4360   24.5090 C.2   548  HIS548      0.2264
    115  O         40.0040  125.1570   23.3560 O.2   548  HIS548     -0.2867
    116  CB        38.5560  125.4330   26.2440 C.3   548  HIS548      0.0745
    117  CG        37.2870  125.1550   25.4930 C.ar  548  HIS548      0.0817
    118  ND1       36.5160  124.0330   25.7180 N.ar  548  HIS548     -0.2268
    119  CD2       36.6310  125.8760   24.5560 C.ar  548  HIS548      0.1154
    120  CE1       35.4370  124.0800   24.9620 C.ar  548  HIS548      0.1986
    121  NE2       35.4830  125.1890   24.2470 N.ar  548  HIS548     -0.2212
@<TRIPOS>BOND
     1     1     2    1
     2     4     3    2
     3     2     3    1
     4     3     5   am
     5     5     6    1
     6     6     7    1
     7    17    18    2
     8    17    16    1
     9    22    24   ar
    10    22    20   ar
    11     9    10    1
    12    24    25   ar
    13    19    16    1
    14    19    20    1
    15    13    10    1
    16    13    14    1
    17    16    15    1
    18    15    11   am
    19     7     8    2
    20    20    21   ar
    21    11    10    1
    22    11    12    2
    23   115   114    2
    24    25    26    1
    25    25    23   ar
    26    21    23   ar
    27   121   119   ar
    28   121   120   ar
    29   114   113    1
    30   119   117   ar
    31   120   118   ar
    32   103   102    1
    33   104   102    1
    34   117   118   ar
    35   117   116    1
    36   113   116    1
    37   113   112    1
    38   102   101    2
    39    92    91    1
    40    27    28    1
    41    77    75   ar
    42    77    76   ar
    43    93    91    1
    44   101   100    1
    45    91    90    1
    46    75    73   ar
    47    30    29    2
    48    33    31    1
    49    76    74   ar
    50    31    28    1
    51    31    32    1
    52   100    99    1
    53   110   109    1
    54   111   109    1
    55    28    29    1
    56    45    47   ar
    57    45    43   ar
    58    73    72   ar
    59    47    46   ar
    60   109   106    1
    61    90    87    1
    62    89    88    2
    63    99    98    1
    64    98    95    1
    65    74    72   ar
    66    87    88    1
    67    87    86    1
    68    72    71    1
    69    65    66   ar
    70    65    63   ar
    71    43    42   ar
    72    43    41   ar
    73    66    64   ar
    74    42    40   ar
    75    46    44   ar
    76   105   106    1
    77   105    96   am
    78   106   107    1
    79   108   107    2
    80    95    96    1
    81    95    94    1
    82    96    97    2
    83    63    61   ar
    84    55    54    1
    85    71    68    1
    86    41    44   ar
    87    41    39   ar
    88    70    69    2
    89    64    62   ar
    90    40    39   ar
    91    54    53    1
    92    69    68    1
    93    69    78   am
    94    68    67    1
    95    39    38    1
    96    61    62   ar
    97    61    60    1
    98    78    79    1
    99    79    80    1
   100    79    82    1
   101    81    80    2
   102    83    82    1
   103    83    85    1
   104    60    57    1
   105    38    35    1
   106    53    52    1
   107    57    56    1
   108    57    58    1
   109    34    35    1
   110    82    84    1
   111    59    58    2
   112    35    36    1
   113    52    49    1
   114    36    37    2
   115    49    48    1
   116    49    50    1
   117    50    51    2
