@<TRIPOS>MOLECULE
tmp/1veaA00.pdb
 79 79 0 0 0
SMALL
GASTEIGER

@<TRIPOS>ATOM
      1  N         38.3130 -100.4300   90.2740 N.3    79  HIS79      -0.1226
      2  CA        39.7610 -100.5110   90.1540 C.3    79  HIS79       0.1752
      3  C         40.1550 -101.8750   89.6200 C.2    79  HIS79       0.2596
      4  O         41.2390 -102.0380   89.0680 O.2    79  HIS79      -0.2718
      5  CB        40.4510 -100.2520   91.5080 C.3    79  HIS79       0.0759
      6  CG        40.3580  -98.8270   91.9770 C.ar   79  HIS79       0.0818
      7  ND1       39.3310  -98.3650   92.7760 N.ar   79  HIS79      -0.2268
      8  CD2       41.1530  -97.7550   91.7370 C.ar   79  HIS79       0.1154
      9  CE1       39.4960  -97.0740   93.0070 C.ar   79  HIS79       0.1986
     10  NE2       40.5930  -96.6780   92.3870 N.ar   79  HIS79      -0.2212
     11  N         39.2750 -102.8600   89.7990 N.am   80  GLY80      -0.1957
     12  CA        39.5490 -104.1950   89.2880 C.3    80  GLY80       0.1869
     13  C         39.3330 -104.2420   87.7750 C.2    80  GLY80       0.2309
     14  O         40.2420 -104.6100   87.0160 O.2    80  GLY80      -0.2863
     15  N         41.4880 -102.4760   85.3030 N.3    83  ARG83      -0.1231
     16  CA        42.8380 -102.9610   85.5100 C.3    83  ARG83       0.1694
     17  C         43.8320 -101.9910   86.1540 C.2    83  ARG83       0.2593
     18  O         44.9500 -101.8440   85.6700 O.2    83  ARG83      -0.2718
     19  CB        43.3830 -103.4580   84.1730 C.3    83  ARG83       0.0321
     20  CG        42.3510 -104.2700   83.4040 C.3    83  ARG83       0.0489
     21  CD        42.8390 -104.6840   82.0390 C.3    83  ARG83       0.2205
     22  NE        44.0030 -105.5570   82.1130 N.pl3  83  ARG83      -0.0865
     23  CZ        44.6870 -105.9810   81.0530 C.cat  83  ARG83       0.5346
     24  NH1       44.3220 -105.6070   79.8300 N.pl3  83  ARG83       0.1354
     25  NH2       45.7330 -106.7840   81.2170 N.pl3  83  ARG83       0.1354
     26  N         43.4260 -101.3430   87.2430 N.am   84  GLY84      -0.1942
     27  CA        44.3130 -100.4420   87.9590 C.3    84  GLY84       0.2014
     28  C         44.4560  -99.0430   87.3880 C.2    84  GLY84       0.2638
     29  O         45.3280  -98.2840   87.8200 O.2    84  GLY84      -0.2714
     30  N         43.6020  -98.6890   86.4290 N.am   85  GLU85      -0.1977
     31  CA        43.6590  -97.3690   85.8110 C.3    85  GLU85       0.1602
     32  C         42.2670  -96.8010   85.6180 C.2    85  GLU85       0.2287
     33  O         41.6920  -96.8600   84.5250 O.2    85  GLU85      -0.2864
     34  CB        44.3910  -97.4400   84.4710 C.3    85  GLU85       0.0415
     35  CG        45.8990  -97.5350   84.6080 C.3    85  GLU85       0.1163
     36  CD        46.4730  -96.3620   85.3810 C.2    85  GLU85       0.3649
     37  OE1       46.0690  -95.2130   85.0950 O.co2  85  GLU85      -0.2457
     38  OE2       47.3220  -96.5880   86.2720 O.co2  85  GLU85      -0.2457
     39  N         38.9670 -108.8330   75.6960 N.3   133  HIS133     -0.1226
     40  CA        39.4650 -108.9570   77.0570 C.3   133  HIS133      0.1752
     41  C         38.3200 -108.8680   78.0360 C.2   133  HIS133      0.2596
     42  O         37.3160 -108.2110   77.7690 O.2   133  HIS133     -0.2718
     43  CB        40.4600 -107.8440   77.3500 C.3   133  HIS133      0.0759
     44  CG        41.5700 -108.2490   78.2650 C.ar  133  HIS133      0.0818
     45  ND1       42.7050 -108.8870   77.8170 N.ar  133  HIS133     -0.2268
     46  CD2       41.7240 -108.1010   79.6010 C.ar  133  HIS133      0.1154
     47  CE1       43.5130 -109.1120   78.8380 C.ar  133  HIS133      0.1986
     48  NE2       42.9410 -108.6460   79.9310 N.ar  133  HIS133     -0.2212
     49  N         38.4820 -109.5390   79.1710 N.am  134  GLU134     -0.1965
     50  CA        37.4750 -109.5520   80.2300 C.3   134  GLU134      0.1733
     51  C         38.1000 -108.9180   81.4450 C.2   134  GLU134      0.2617
     52  O         39.3080 -109.0210   81.6200 O.2   134  GLU134     -0.2715
     53  CB        37.0890 -110.9780   80.5890 C.3   134  GLU134      0.0429
     54  CG        36.1260 -111.6610   79.6490 C.3   134  GLU134      0.1163
     55  CD        36.1400 -113.1520   79.8650 C.2   134  GLU134      0.3649
     56  OE1       37.0070 -113.8240   79.2750 O.co2 134  GLU134     -0.2457
     57  OE2       35.3120 -113.6530   80.6510 O.co2 134  GLU134     -0.2457
     58  N         37.2790 -108.2660   82.2710 N.am  135  THR135     -0.1937
     59  CA        37.7420 -107.6200   83.5030 C.3   135  THR135      0.2028
     60  C         36.7540 -107.8250   84.6450 C.2   135  THR135      0.2642
     61  O         35.5450 -107.7170   84.4600 O.2   135  THR135     -0.2714
     62  CB        37.9780 -106.1080   83.3150 C.3   135  THR135      0.1808
     63  OG1       36.7390 -105.4620   83.0100 O.3   135  THR135     -0.2208
     64  CG2       38.9590 -105.8700   82.1890 C.3   135  THR135      0.0379
     65  N         37.2920 -108.1050   85.8270 N.am  136  PHE136     -0.1959
     66  CA        36.5080 -108.3660   87.0300 C.3   136  PHE136      0.1771
     67  C         36.9100 -107.4330   88.1530 C.2   136  PHE136      0.2620
     68  O         38.0570 -106.9930   88.2230 O.2   136  PHE136     -0.2715
     69  CB        36.7440 -109.8000   87.5060 C.3   136  PHE136      0.0574
     70  CG        36.4810 -110.8340   86.4590 C.ar  136  PHE136     -0.0200
     71  CD1       37.4640 -111.1760   85.5410 C.ar  136  PHE136     -0.0042
     72  CD2       35.2410 -111.4610   86.3730 C.ar  136  PHE136     -0.0042
     73  CE1       37.2310 -112.1180   84.5570 C.ar  136  PHE136     -0.0003
     74  CE2       34.9970 -112.4120   85.3840 C.ar  136  PHE136     -0.0003
     75  CZ        35.9980 -112.7370   84.4770 C.ar  136  PHE136     -0.0000
     76  N         35.9650 -107.1660   89.0460 N.am  137  GLY137     -0.1954
     77  CA        36.2270 -106.3060   90.1790 C.3   137  GLY137      0.1869
     78  C         35.2340 -106.6020   91.2770 C.2   137  GLY137      0.2309
     79  O         34.1180 -107.0710   91.0130 O.2   137  GLY137     -0.2863
@<TRIPOS>BOND
     1    39    40    1
     2    40    43    1
     3    40    41    1
     4    43    44    1
     5    42    41    2
     6    45    44   ar
     7    45    47   ar
     8    41    49   am
     9    44    46   ar
    10    47    48   ar
    11    49    50    1
    12    56    55   ar
    13    46    48   ar
    14    54    55    1
    15    54    53    1
    16    24    23    1
    17    55    57   ar
    18    50    53    1
    19    50    51    1
    20    23    25    1
    21    23    22    2
    22    51    52    2
    23    51    58   am
    24    21    22    1
    25    21    20    1
    26    64    62    1
    27    58    59    1
    28    63    62    1
    29    62    59    1
    30    20    19    1
    31    59    60    1
    32    19    16    1
    33    61    60    2
    34    34    35    1
    35    34    31    1
    36    75    73   ar
    37    75    74   ar
    38    33    32    2
    39    73    71   ar
    40    35    36    1
    41    60    65   am
    42    37    36   ar
    43    15    16    1
    44    36    38   ar
    45    74    72   ar
    46    16    17    1
    47    71    70   ar
    48    32    31    1
    49    18    17    2
    50    31    30    1
    51    65    66    1
    52    17    26   am
    53    72    70   ar
    54    30    28   am
    55    70    69    1
    56    14    13    2
    57    66    69    1
    58    66    67    1
    59    26    27    1
    60    28    29    2
    61    28    27    1
    62    13    12    1
    63    67    68    2
    64    67    76   am
    65    76    77    1
    66     4     3    2
    67    12    11    1
    68     3    11   am
    69     3     2    1
    70     2     1    1
    71     2     5    1
    72    77    78    1
    73    79    78    2
    74     5     6    1
    75     8     6   ar
    76     8    10   ar
    77     6     7   ar
    78    10     9   ar
    79     7     9   ar
