@<TRIPOS>MOLECULE
tmp/1vecB00.pdb
 76 75 0 0 0
SMALL
GASTEIGER

@<TRIPOS>ATOM
      1  N         30.3250    4.0210   74.6070 N.3    79  PRO79      -0.2102
      2  CA        28.9200    3.7280   74.8890 C.3    79  PRO79       0.1504
      3  C         28.5850    2.3930   75.5070 C.2    79  PRO79       0.2576
      4  O         27.4910    2.2310   76.0380 O.2    79  PRO79      -0.2718
      5  CB        28.2470    3.9250   73.5350 C.3    79  PRO79       0.0282
      6  CG        29.3030    3.5190   72.5650 C.3    79  PRO79       0.0208
      7  CD        30.5980    4.0320   73.1600 C.3    79  PRO79       0.0893
      8  N         29.5020    1.4350   75.4720 N.am   80  THR80      -0.1939
      9  CA        29.1950    0.1350   76.0460 C.3    80  THR80       0.2028
     10  C         30.3370   -0.4440   76.8500 C.2    80  THR80       0.2642
     11  O         31.4890   -0.0450   76.7000 O.2    80  THR80      -0.2714
     12  CB        28.8370   -0.8980   74.9710 C.3    80  THR80       0.1808
     13  OG1       29.9830   -1.1470   74.1430 O.3    80  THR80      -0.2208
     14  CG2       27.6790   -0.4010   74.1020 C.3    80  THR80       0.0379
     15  N         30.0040   -1.3860   77.7230 N.am   81  ARG81      -0.1977
     16  CA        31.0010   -2.0520   78.5460 C.3    81  ARG81       0.1597
     17  C         31.9730   -2.8010   77.6460 C.2    81  ARG81       0.2287
     18  O         33.1940   -2.7360   77.8300 O.2    81  ARG81      -0.2864
     19  CB        30.3320   -3.0500   79.4840 C.3    81  ARG81       0.0334
     20  CG        29.6410   -2.4370   80.6740 C.3    81  ARG81       0.0492
     21  CD        28.9730   -3.5250   81.5020 C.3    81  ARG81       0.2205
     22  NE        29.8770   -4.6570   81.6980 N.pl3  81  ARG81      -0.0865
     23  CZ        29.4680   -5.8920   81.9730 C.cat  81  ARG81       0.5346
     24  NH1       28.1670   -6.1610   82.0870 N.pl3  81  ARG81       0.1354
     25  NH2       30.3610   -6.8630   82.1230 N.pl3  81  ARG81       0.1354
     26  N         32.5690    0.7190   84.5700 N.3   107  THR107     -0.1203
     27  CA        31.2470    0.7480   83.9770 C.3   107  THR107      0.1994
     28  C         30.2400    0.3910   85.0630 C.2   107  THR107      0.2618
     29  O         30.6150    0.0770   86.1980 O.2   107  THR107     -0.2717
     30  CB        31.0900   -0.2990   82.9020 C.3   107  THR107      0.1784
     31  OG1       30.9980   -1.5860   83.5230 O.3   107  THR107     -0.2211
     32  CG2       32.2830   -0.2920   81.9670 C.3   107  THR107      0.0376
     33  N         28.9610    0.4090   84.7020 N.am  108  GLY108     -0.1956
     34  CA        27.9220    0.0940   85.6670 C.3   108  GLY108      0.1869
     35  C         28.0070   -1.3250   86.1900 C.2   108  GLY108      0.2309
     36  O         27.3620   -1.6650   87.1870 O.2   108  GLY108     -0.2863
     37  N         32.0140    4.1900   80.5830 N.3   129  THR129     -0.1204
     38  CA        30.7270    4.3900   79.9280 C.3   129  THR129      0.1979
     39  C         30.2010    5.7200   80.4800 C.2   129  THR129      0.2460
     40  O         30.5920    6.1470   81.5560 O.2   129  THR129     -0.2732
     41  CB        29.7540    3.2520   80.2640 C.3   129  THR129      0.1783
     42  OG1       29.9550    2.8600   81.6210 O.3   129  THR129     -0.2211
     43  CG2       29.9670    2.0790   79.3520 C.3   129  THR129      0.0376
     44  N         29.3030    6.3850   79.7500 N.am  130  PRO130     -0.2717
     45  CA        28.7350    7.6750   80.1620 C.3   130  PRO130      0.1536
     46  C         28.1620    7.7690   81.5780 C.2   130  PRO130      0.2599
     47  O         28.6440    8.5460   82.4180 O.2   130  PRO130     -0.2715
     48  CB        27.6660    7.9230   79.1110 C.3   130  PRO130      0.0310
     49  CG        28.1390    7.1540   77.9480 C.3   130  PRO130      0.0237
     50  CD        28.6350    5.8870   78.5460 C.3   130  PRO130      0.0939
     51  N         27.1160    6.9850   81.8180 N.am  131  GLY131     -0.1941
     52  CA        26.4630    6.9810   83.1190 C.3   131  GLY131      0.2014
     53  C         27.3680    6.7190   84.3070 C.2   131  GLY131      0.2638
     54  O         27.3320    7.4340   85.3140 O.2   131  GLY131     -0.2714
     55  N         28.1910    5.6890   84.1970 N.am  132  ARG132     -0.1977
     56  CA        29.1030    5.3530   85.2740 C.3   132  ARG132      0.1597
     57  C         30.0820    6.4570   85.6540 C.2   132  ARG132      0.2287
     58  O         30.2750    6.7520   86.8320 O.2   132  ARG132     -0.2864
     59  CB        29.9190    4.1090   84.9210 C.3   132  ARG132      0.0334
     60  CG        30.8990    3.7410   86.0080 C.3   132  ARG132      0.0492
     61  CD        30.1350    3.5170   87.2990 C.3   132  ARG132      0.2205
     62  NE        30.9710    2.8600   88.2900 N.pl3 132  ARG132     -0.0865
     63  CZ        30.5080    2.2040   89.3430 C.cat 132  ARG132      0.5346
     64  NH1       29.2020    2.1170   89.5460 N.pl3 132  ARG132      0.1354
     65  NH2       31.3550    1.6280   90.1850 N.pl3 132  ARG132      0.1354
     66  N         21.7570    9.2960   76.1700 N.3   163  PHE163     -0.1241
     67  CA        23.0330    9.6980   76.7790 C.3   163  PHE163      0.1605
     68  C         23.4150   11.1680   76.6070 C.2   163  PHE163      0.2264
     69  O         24.2810   11.6730   77.3250 O.2   163  PHE163     -0.2867
     70  CB        24.1770    8.8310   76.2180 C.3   163  PHE163      0.0534
     71  CG        23.9670    7.3570   76.3970 C.ar  163  PHE163     -0.0203
     72  CD1       23.8760    6.5210   75.2960 C.ar  163  PHE163     -0.0042
     73  CD2       23.8380    6.8050   77.6660 C.ar  163  PHE163     -0.0042
     74  CE1       23.6630    5.1590   75.4510 C.ar  163  PHE163     -0.0003
     75  CE2       23.6240    5.4410   77.8310 C.ar  163  PHE163     -0.0003
     76  CZ        23.5340    4.6200   76.7220 C.ar  163  PHE163     -0.0000
@<TRIPOS>BOND
     1     6     7    1
     2     6     5    1
     3     7     1    1
     4     5     2    1
     5    14    12    1
     6    13    12    1
     7     1     2    1
     8     2     3    1
     9    12     9    1
    10    72    74   ar
    11    72    71   ar
    12    74    76   ar
    13     8     3   am
    14     8     9    1
    15     3     4    2
    16     9    10    1
    17    66    67    1
    18    70    71    1
    19    70    67    1
    20    71    73   ar
    21    68    67    1
    22    68    69    2
    23    11    10    2
    24    76    75   ar
    25    10    15   am
    26    17    18    2
    27    17    16    1
    28    73    75   ar
    29    15    16    1
    30    49    50    1
    31    49    48    1
    32    50    44    1
    33    16    19    1
    34    48    45    1
    35    43    41    1
    36    19    20    1
    37    44    45    1
    38    44    39   am
    39    38    41    1
    40    38    39    1
    41    38    37    1
    42    45    46    1
    43    41    42    1
    44    39    40    2
    45    20    21    1
    46    21    22    1
    47    46    51   am
    48    46    47    2
    49    22    23    2
    50    51    52    1
    51    32    30    1
    52    23    24    1
    53    23    25    1
    54    30    31    1
    55    30    27    1
    56    52    53    1
    57    27    26    1
    58    27    28    1
    59    55    53   am
    60    55    56    1
    61    53    54    2
    62    33    28   am
    63    33    34    1
    64    59    56    1
    65    59    60    1
    66    28    29    2
    67    56    57    1
    68    57    58    2
    69    34    35    1
    70    60    61    1
    71    35    36    2
    72    61    62    1
    73    62    63    2
    74    63    64    1
    75    63    65    1
