@<TRIPOS>MOLECULE
tmp/1vefA00.pdb
 117 110 0 0 0
SMALL
GASTEIGER

@<TRIPOS>ATOM
      1  N          1.9050    0.3870   19.7100 N.3   104  SER104     -0.1202
      2  CA         3.2980    0.8050   19.6890 C.3   104  SER104      0.2020
      3  C          4.0830   -0.0250   18.6930 C.2   104  SER104      0.2619
      4  O          3.6010   -1.0430   18.1930 O.2   104  SER104     -0.2717
      5  CB         3.9120    0.6000   21.0750 C.3   104  SER104      0.2103
      6  OG         3.9450   -0.7860   21.3940 O.3   104  SER104     -0.2182
      7  N          5.3130    0.4030   18.4340 N.am  105  GLY105     -0.1942
      8  CA         6.1640   -0.3210   17.5120 C.3   105  GLY105      0.2014
      9  C          6.5460   -1.6730   18.0800 C.2   105  GLY105      0.2639
     10  O          6.4940   -2.6890   17.3900 O.2   105  GLY105     -0.2714
     11  N          6.9270   -1.6980   19.3520 N.am  106  THR106     -0.1950
     12  CA         7.3100   -2.9630   19.9600 C.3   106  THR106      0.1897
     13  C          6.1370   -3.9570   19.9660 C.2   106  THR106      0.2313
     14  O          6.3450   -5.1500   19.7780 O.2   106  THR106     -0.2863
     15  CB         7.8850   -2.7500   21.3900 C.3   106  THR106      0.1794
     16  OG1        8.5060   -3.9620   21.8330 O.3   106  THR106     -0.2208
     17  CG2        6.7970   -2.3370   22.3760 C.3   106  THR106      0.0378
     18  N         17.1990   -2.8590   15.8900 N.3   132  PHE132     -0.1227
     19  CA        16.3660   -2.4790   17.0240 C.3   132  PHE132      0.1736
     20  C         14.9090   -2.7780   16.6850 C.2   132  PHE132      0.2596
     21  O         14.3780   -2.2710   15.6940 O.2   132  PHE132     -0.2718
     22  CB        16.5160   -0.9920   17.3460 C.3   132  PHE132      0.0547
     23  CG        15.7200   -0.5600   18.5440 C.ar  132  PHE132     -0.0202
     24  CD1       16.1940   -0.7970   19.8290 C.ar  132  PHE132     -0.0042
     25  CD2       14.4720    0.0380   18.3920 C.ar  132  PHE132     -0.0042
     26  CE1       15.4410   -0.4480   20.9480 C.ar  132  PHE132     -0.0003
     27  CE2       13.7050    0.3910   19.5080 C.ar  132  PHE132     -0.0003
     28  CZ        14.1910    0.1470   20.7840 C.ar  132  PHE132     -0.0000
     29  N         14.2620   -3.5830   17.5200 N.am  133  SER133     -0.1938
     30  CA        12.8740   -3.9640   17.2830 C.3   133  SER133      0.2055
     31  C         11.9170   -3.5680   18.3980 C.2   133  SER133      0.2644
     32  O         10.7040   -3.6150   18.2110 O.2   133  SER133     -0.2714
     33  CB        12.7800   -5.4750   17.0620 C.3   133  SER133      0.2130
     34  OG        13.5810   -5.8860   15.9690 O.3   133  SER133     -0.2179
     35  N         12.4460   -3.1850   19.5550 N.am  134  GLY134     -0.1939
     36  CA        11.5710   -2.7990   20.6490 C.3   134  GLY134      0.2014
     37  C         12.0930   -3.2260   22.0020 C.2   134  GLY134      0.2638
     38  O         13.0180   -4.0320   22.0850 O.2   134  GLY134     -0.2714
     39  N         11.4660   -2.7040   23.0520 N.am  135  ARG135     -0.1977
     40  CA        11.8720   -2.9650   24.4330 C.3   135  ARG135      0.1597
     41  C         11.1060   -4.0310   25.2140 C.2   135  ARG135      0.2287
     42  O         11.5600   -4.4460   26.2800 O.2   135  ARG135     -0.2864
     43  CB        11.8410   -1.6560   25.2280 C.3   135  ARG135      0.0334
     44  CG        12.7070   -0.5400   24.6610 C.3   135  ARG135      0.0492
     45  CD        14.1890   -0.7320   24.9380 C.3   135  ARG135      0.2205
     46  NE        14.8890    0.5350   24.7630 N.pl3 135  ARG135     -0.0865
     47  CZ        15.9350    0.9170   25.4870 C.cat 135  ARG135      0.5346
     48  NH1       16.4110    0.1180   26.4340 N.pl3 135  ARG135      0.1354
     49  NH2       16.4780    2.1100   25.2800 N.pl3 135  ARG135      0.1354
     50  N         15.1970   -4.0610    9.3990 N.3   184  GLU184     -0.1245
     51  CA        14.7810   -2.6890    9.1310 C.3   184  GLU184      0.1567
     52  C         15.3730   -2.3820    7.7530 C.2   184  GLU184      0.2260
     53  O         16.5130   -2.7560    7.4790 O.2   184  GLU184     -0.2867
     54  CB        15.4030   -1.7250   10.1420 C.3   184  GLU184      0.0388
     55  CG        14.9410   -1.8780   11.5800 C.3   184  GLU184      0.1160
     56  CD        15.9610   -1.3220   12.5560 C.2   184  GLU184      0.3649
     57  OE1       16.7790   -2.1170   13.0740 O.co2 184  GLU184     -0.2457
     58  OE2       15.9600   -0.0960   12.7890 O.co2 184  GLU184     -0.2457
     59  N         16.2590    0.3550    6.7520 N.3   186  VAL186     -0.1245
     60  CA        17.3060    1.3220    7.0840 C.3   186  VAL186      0.1561
     61  C         17.3740    1.2290    8.6000 C.2   186  VAL186      0.2260
     62  O         16.3830    1.4950    9.2750 O.2   186  VAL186     -0.2867
     63  CB        16.9420    2.7870    6.7100 C.3   186  VAL186      0.0252
     64  CG1       18.1050    3.7130    7.0790 C.3   186  VAL186      0.0019
     65  CG2       16.6380    2.9000    5.2280 C.3   186  VAL186      0.0019
     66  N         17.6840    2.3120   12.1550 N.3   188  GLY188     -0.1210
     67  CA        17.5410    3.6020   12.8060 C.3   188  GLY188      0.1956
     68  C         18.5310    3.8300   13.9290 C.2   188  GLY188      0.2611
     69  O         19.5490    4.5000   13.7380 O.2   188  GLY188     -0.2717
     70  N         18.2260    3.2770   15.1010 N.am  189  GLU189     -0.1979
     71  CA        19.0870    3.4150   16.2730 C.3   189  GLU189      0.1602
     72  C         20.4590    2.8380   15.9450 C.2   189  GLU189      0.2287
     73  O         21.4650    3.2190   16.5480 O.2   189  GLU189     -0.2864
     74  CB        18.4940    2.6600   17.4690 C.3   189  GLU189      0.0415
     75  CG        16.9900    2.8210   17.6680 C.3   189  GLU189      0.1163
     76  CD        16.5530    4.2360   18.0100 C.2   189  GLU189      0.3649
     77  OE1       15.7140    4.7960   17.2630 O.co2 189  GLU189     -0.2457
     78  OE2       17.0320    4.7910   19.0270 O.co2 189  GLU189     -0.2457
     79  N         10.5630   -4.2490    9.3570 N.3   217  ASP217     -0.1239
     80  CA        10.2110   -3.2620   10.3650 C.3   217  ASP217      0.1674
     81  C         10.3490   -1.8650    9.7710 C.2   217  ASP217      0.2266
     82  O         11.4610   -1.3710    9.5700 O.2   217  ASP217     -0.2867
     83  CB        11.1430   -3.4200   11.5720 C.3   217  ASP217      0.1410
     84  CG        10.8550   -2.4300   12.6800 C.2   217  ASP217      0.3668
     85  OD1       10.2610   -1.3710   12.4110 O.co2 217  ASP217     -0.2456
     86  OD2       11.2490   -2.7070   13.8330 O.co2 217  ASP217     -0.2456
     87  N          8.7290    0.7900   11.1700 N.3   219  ILE219     -0.1231
     88  CA         8.1830    1.6310   12.2170 C.3   219  ILE219      0.1692
     89  C          8.8070    3.0230   12.1280 C.2   219  ILE219      0.2591
     90  O          8.1440    4.0230   12.3840 O.2   219  ILE219     -0.2718
     91  CB         8.4370    0.9780   13.5950 C.3   219  ILE219      0.0266
     92  CG1        7.4850   -0.2160   13.7510 C.3   219  ILE219      0.0019
     93  CG2        8.2200    1.9840   14.7200 C.3   219  ILE219      0.0020
     94  CD1        7.9410   -1.2740   14.7390 C.3   219  ILE219      0.0001
     95  N         10.0780    3.0880   11.7390 N.am  220  GLN220     -0.1979
     96  CA        10.7590    4.3670   11.6070 C.3   220  GLN220      0.1601
     97  C         10.8320    4.8180   10.1480 C.2   220  GLN220      0.2287
     98  O         10.7190    6.0040    9.8540 O.2   220  GLN220     -0.2864
     99  CB        12.1750    4.2640   12.1870 C.3   220  GLN220      0.0394
    100  CG        12.9590    5.5660   12.1960 C.3   220  GLN220      0.0908
    101  CD        12.3040    6.6210   13.0510 C.2   220  GLN220      0.2608
    102  OE1       11.3670    7.2950   12.6190 O.2   220  GLN220     -0.2717
    103  NE2       12.7810    6.7620   14.2850 N.am  220  GLN220     -0.0878
    104  N          4.4040    1.9330   13.0110 N.3   245  ALA245     -0.1231
    105  CA         4.0370    2.6400   14.2310 C.3   245  ALA245      0.1694
    106  C          4.5200    4.0740   14.0990 C.2   245  ALA245      0.2591
    107  O          4.4390    4.6490   13.0190 O.2   245  ALA245     -0.2718
    108  CB         4.6470    1.9640   15.4650 C.3   245  ALA245      0.0304
    109  N          5.0260    4.6410   15.1880 N.am  246  LYS246     -0.1980
    110  CA         5.5000    6.0200   15.2090 C.3   246  LYS246      0.1596
    111  C          4.5750    7.0100   14.4860 C.2   246  LYS246      0.2287
    112  O          3.5940    7.4360   15.0800 O.2   246  LYS246     -0.2864
    113  CB         6.9500    6.1070   14.6990 C.3   246  LYS246      0.0298
    114  CG         7.9560    5.4820   15.6940 C.3   246  LYS246      0.0038
    115  CD         9.3880    5.9830   15.5220 C.3   246  LYS246      0.0206
    116  CE        10.2770    5.5890   16.7240 C.3   246  LYS246      0.1093
    117  NZ        10.6300    4.1790   16.5230 N.3   246  LYS246     -0.1314
@<TRIPOS>BOND
     1    65    63    1
     2    63    64    1
     3    63    60    1
     4    59    60    1
     5    60    61    1
     6    53    52    2
     7    52    51    1
     8    61    62    2
     9    51    50    1
    10    51    54    1
    11    79    80    1
    12    82    81    2
    13    81    80    1
    14    98    97    2
    15    54    55    1
    16    97    96    1
    17    80    83    1
    18    87    88    1
    19    83    84    1
    20    55    56    1
    21    96    95    1
    22    96    99    1
    23    95    89   am
    24    89    88    1
    25    89    90    2
    26    66    67    1
    27    99   100    1
    28   100   101    1
    29    88    91    1
    30    85    84   ar
    31    56    58   ar
    32    56    57   ar
    33   102   101    2
    34    84    86   ar
    35    67    68    1
    36   104   105    1
    37   107   106    2
    38   101   103   am
    39    91    92    1
    40    91    93    1
    41    69    68    2
    42    92    94    1
    43    68    70   am
    44   106   105    1
    45   106   109   am
    46   105   108    1
    47   111   112    2
    48   111   110    1
    49   113   110    1
    50   113   114    1
    51    70    71    1
    52   109   110    1
    53   115   114    1
    54   115   116    1
    55    21    20    2
    56    18    19    1
    57    72    71    1
    58    72    73    2
    59    34    33    1
    60    71    74    1
    61   117   116    1
    62    20    19    1
    63    20    29   am
    64    19    22    1
    65    33    30    1
    66    77    76   ar
    67    30    29    1
    68    30    31    1
    69    22    23    1
    70    10     9    2
    71    74    75    1
    72     8     9    1
    73     8     7    1
    74    75    76    1
    75    76    78   ar
    76     9    11   am
    77     4     3    2
    78    32    31    2
    79    25    23   ar
    80    25    27   ar
    81    31    35   am
    82     7     3   am
    83    23    24   ar
    84     3     2    1
    85    11    12    1
    86    27    28   ar
    87    35    36    1
    88     2     1    1
    89     2     5    1
    90    14    13    2
    91    24    26   ar
    92    12    13    1
    93    12    15    1
    94    36    37    1
    95    28    26   ar
    96     5     6    1
    97    15    16    1
    98    15    17    1
    99    37    38    2
   100    37    39   am
   101    39    40    1
   102    40    41    1
   103    40    43    1
   104    44    45    1
   105    44    43    1
   106    46    45    1
   107    46    47    2
   108    41    42    2
   109    49    47    1
   110    47    48    1
