@<TRIPOS>MOLECULE
tmp/1venA00.pdb
 135 128 0 0 0
SMALL
GASTEIGER

@<TRIPOS>ATOM
      1  N         51.3840   35.8970   18.1310 N.3    16  MET16      -0.1245
      2  CA        51.3580   37.0300   17.2100 C.3    16  MET16       0.1570
      3  C         52.4090   38.0570   17.6170 C.2    16  MET16       0.2261
      4  O         52.4660   38.4790   18.7720 O.2    16  MET16      -0.2867
      5  CB        49.9760   37.6840   17.2010 C.3    16  MET16       0.0387
      6  CG        49.1050   37.2620   16.0320 C.3    16  MET16       0.0595
      7  SD        49.0870   38.4650   14.6840 S.3    16  MET16      -0.1393
      8  CE        50.6190   38.1430   13.8420 C.3    16  MET16       0.0692
      9  N         52.9020   44.8980   16.2710 N.3    19  LEU19      -0.1245
     10  CA        52.5190   45.5690   15.0300 C.3    19  LEU19       0.1561
     11  C         53.7290   46.3330   14.4910 C.2    19  LEU19       0.2260
     12  O         53.9730   46.3660   13.2840 O.2    19  LEU19      -0.2867
     13  CB        51.3410   46.5250   15.2690 C.3    19  LEU19       0.0270
     14  CG        50.0000   45.8470   15.5940 C.3    19  LEU19       0.0019
     15  CD1       48.9550   46.8960   15.9190 C.3    19  LEU19       0.0001
     16  CD2       49.5400   44.9970   14.4150 C.3    19  LEU19       0.0001
     17  N         53.0850   40.2250   10.6220 N.3    49  ASP49      -0.1239
     18  CA        52.6200   41.0260    9.4910 C.3    49  ASP49       0.1674
     19  C         53.7920   41.5990    8.6980 C.2    49  ASP49       0.2266
     20  O         54.6920   42.2250    9.2720 O.2    49  ASP49      -0.2867
     21  CB        51.8020   42.2490    9.9310 C.3    49  ASP49       0.1410
     22  CG        50.4810   41.8920   10.5550 C.2    49  ASP49       0.3668
     23  OD1       50.4460   41.7280   11.7880 O.co2  49  ASP49      -0.2456
     24  OD2       49.4840   41.7830    9.8080 O.co2  49  ASP49      -0.2456
     25  N         53.9990   44.2080    5.9730 N.3    51  TRP51      -0.1241
     26  CA        53.2110   45.2460    5.3200 C.3    51  TRP51       0.1605
     27  C         53.5700   45.5640    3.8770 C.2    51  TRP51       0.2264
     28  O         54.7350   45.7640    3.5360 O.2    51  TRP51      -0.2867
     29  CB        53.2720   46.5330    6.1550 C.3    51  TRP51       0.0550
     30  CG        52.8940   46.2950    7.5740 C.ar   51  TRP51       0.0003
     31  CD1       53.7430   46.1590    8.6400 C.ar   51  TRP51       0.0946
     32  CD2       51.5780   46.0330    8.0720 C.ar   51  TRP51       0.0152
     33  NE1       53.0350   45.8180    9.7660 N.ar   51  TRP51      -0.2442
     34  CE2       51.7040   45.7330    9.4470 C.ar   51  TRP51       0.0810
     35  CE3       50.3010   46.0150    7.4880 C.ar   51  TRP51       0.0012
     36  CZ2       50.6000   45.4170   10.2510 C.ar   51  TRP51       0.0191
     37  CZ3       49.2030   45.7000    8.2860 C.ar   51  TRP51       0.0001
     38  CH2       49.3610   45.4050    9.6550 C.ar   51  TRP51       0.0015
     39  N         52.2990   36.8720    7.3340 N.3    85  ILE85      -0.1245
     40  CA        50.9990   37.3180    6.8590 C.3    85  ILE85       0.1561
     41  C         51.3680   38.3610    5.8130 C.2    85  ILE85       0.2260
     42  O         52.0280   39.3490    6.1290 O.2    85  ILE85      -0.2867
     43  CB        50.1800   38.0270    7.9510 C.3    85  ILE85       0.0252
     44  CG1       50.0250   37.1190    9.1710 C.3    85  ILE85       0.0019
     45  CG2       48.8170   38.4320    7.3870 C.3    85  ILE85       0.0019
     46  CD1       49.2640   37.7590   10.3180 C.3    85  ILE85       0.0001
     47  N         47.0010   45.2750    3.4680 N.3    89  HIS89      -0.1226
     48  CA        46.0350   46.2210    4.0090 C.3    89  HIS89       0.1752
     49  C         46.7860   47.2350    4.8730 C.2    89  HIS89       0.2596
     50  O         47.9610   47.0430    5.1880 O.2    89  HIS89      -0.2718
     51  CB        44.9620   45.5080    4.8530 C.3    89  HIS89       0.0759
     52  CG        45.4990   44.8140    6.0680 C.ar   89  HIS89       0.0818
     53  ND1       46.0790   43.5640    6.0180 N.ar   89  HIS89      -0.2268
     54  CD2       45.5660   45.2080    7.3620 C.ar   89  HIS89       0.1154
     55  CE1       46.4810   43.2170    7.2290 C.ar   89  HIS89       0.1986
     56  NE2       46.1810   44.1970    8.0630 N.ar   89  HIS89      -0.2212
     57  N         46.1070   48.3090    5.2550 N.am   90  GLN90      -0.1965
     58  CA        46.7270   49.3470    6.0680 C.3    90  GLN90       0.1733
     59  C         46.8430   49.0130    7.5550 C.2    90  GLN90       0.2616
     60  O         45.9450   48.4120    8.1460 O.2    90  GLN90      -0.2715
     61  CB        45.9460   50.6510    5.9140 C.3    90  GLN90       0.0408
     62  CG        46.3400   51.7440    6.9080 C.3    90  GLN90       0.0908
     63  CD        45.5680   53.0330    6.6800 C.2    90  GLN90       0.2608
     64  OE1       45.6000   53.6020    5.5910 O.2    90  GLN90      -0.2717
     65  NE2       44.8730   53.4980    7.7060 N.am   90  GLN90      -0.0878
     66  N         47.9690   49.3980    8.1510 N.am   91  CYS91      -0.1968
     67  CA        48.1800   49.1990    9.5810 C.3    91  CYS91       0.1712
     68  C         47.9120   50.5640   10.2040 C.2    91  CYS91       0.2296
     69  O         48.5270   51.5630    9.8160 O.2    91  CYS91      -0.2864
     70  CB        49.6220   48.7890    9.8910 C.3    91  CYS91       0.0983
     71  SG        49.8540   48.1330   11.5820 S.3    91  CYS91      -0.0798
     72  N         42.6130   50.9450   13.0290 N.3    94  ASN94      -0.1225
     73  CA        41.7530   49.8880   13.5520 C.3    94  ASN94       0.1785
     74  C         41.9480   49.7430   15.0640 C.2    94  ASN94       0.2597
     75  O         42.9060   50.2770   15.6330 O.2    94  ASN94      -0.2718
     76  CB        42.0580   48.5590   12.8510 C.3    94  ASN94       0.1169
     77  CG        41.3170   48.4090   11.5330 C.2    94  ASN94       0.2627
     78  OD1       41.8470   47.8580   10.5690 O.2    94  ASN94      -0.2716
     79  ND2       40.0760   48.8860   11.4920 N.am   94  ASN94      -0.0877
     80  N         41.0320   49.0240   15.7080 N.am   95  VAL95      -0.1966
     81  CA        41.0930   48.8140   17.1500 C.3    95  VAL95       0.1727
     82  C         42.3740   48.0860   17.5560 C.2    95  VAL95       0.2617
     83  O         42.6510   46.9750   17.0910 O.2    95  VAL95      -0.2715
     84  CB        39.8550   48.0090   17.6520 C.3    95  VAL95       0.0290
     85  CG1       39.8110   46.6370   16.9870 C.3    95  VAL95       0.0023
     86  CG2       39.8990   47.8650   19.1690 C.3    95  VAL95       0.0023
     87  N         43.1580   48.7330   18.4160 N.am   96  GLY96      -0.1940
     88  CA        44.3980   48.1400   18.8900 C.3    96  GLY96       0.2014
     89  C         45.6170   48.4550   18.0420 C.2    96  GLY96       0.2638
     90  O         46.7400   48.0940   18.4020 O.2    96  GLY96      -0.2714
     91  N         45.4010   49.1310   16.9190 N.am   97  ASP97      -0.1971
     92  CA        46.4940   49.4850   16.0210 C.3    97  ASP97       0.1709
     93  C         47.4120   50.5590   16.5980 C.2    97  ASP97       0.2293
     94  O         46.9720   51.6410   16.9990 O.2    97  ASP97      -0.2864
     95  CB        45.9390   49.9420   14.6660 C.3    97  ASP97       0.1436
     96  CG        45.5520   48.7740   13.7670 C.2    97  ASP97       0.3671
     97  OD1       45.3620   47.6510   14.2850 O.co2  97  ASP97      -0.2456
     98  OD2       45.4280   48.9840   12.5410 O.co2  97  ASP97      -0.2456
     99  N         42.2390   45.0760    8.0530 N.3   170  ALA170     -0.1231
    100  CA        42.7970   44.3560    9.1920 C.3   170  ALA170      0.1694
    101  C         43.1510   42.9130    8.8440 C.2   170  ALA170      0.2592
    102  O         43.2000   42.0550    9.7230 O.2   170  ALA170     -0.2718
    103  CB        41.8070   44.3790   10.3560 C.3   170  ALA170      0.0304
    104  N         43.3910   42.6560    7.5600 N.am  171  GLY171     -0.1957
    105  CA        43.7450   41.3170    7.1210 C.3   171  GLY171      0.1869
    106  C         42.6070   40.3100    7.1500 C.2   171  GLY171      0.2309
    107  O         42.8510   39.1060    7.1040 O.2   171  GLY171     -0.2863
    108  N         41.6620   34.9500    6.7930 N.3   287  LYS287     -0.1245
    109  CA        40.8490   35.1110    7.9970 C.3   287  LYS287      0.1561
    110  C         39.4520   35.6530    7.7740 C.2   287  LYS287      0.2260
    111  O         39.2170   36.4690    6.8840 O.2   287  LYS287     -0.2867
    112  CB        41.5040   36.0660    8.9910 C.3   287  LYS287      0.0271
    113  CG        42.9460   35.8300    9.3570 C.3   287  LYS287      0.0035
    114  CD        43.3610   36.9140   10.3670 C.3   287  LYS287      0.0206
    115  CE        44.8470   36.8770   10.6580 C.3   287  LYS287      0.1093
    116  NZ        45.2340   37.9270   11.6410 N.3   287  LYS287     -0.1314
    117  N         47.0370   36.7660   20.4490 N.3   396  LEU396     -0.1231
    118  CA        47.3010   38.1840   20.2360 C.3   396  LEU396      0.1693
    119  C         47.4150   38.6920   21.6790 C.2   396  LEU396      0.2591
    120  O         46.4630   38.5560   22.4380 O.2   396  LEU396     -0.2718
    121  CB        46.1190   38.8720   19.5350 C.3   396  LEU396      0.0284
    122  CG        45.9500   38.7890   18.0110 C.3   396  LEU396      0.0019
    123  CD1       45.6980   37.3530   17.5600 C.3   396  LEU396      0.0001
    124  CD2       44.7770   39.6870   17.5990 C.3   396  LEU396      0.0001
    125  N         48.5490   39.2680   22.0740 N.am  397  ARG397     -0.1980
    126  CA        49.7040   39.4820   21.2160 C.3   397  ARG397      0.1597
    127  C         50.9940   39.4370   22.0520 C.2   397  ARG397      0.2287
    128  O         50.9660   39.6210   23.2680 O.2   397  ARG397     -0.2864
    129  CB        49.5540   40.8560   20.5370 C.3   397  ARG397      0.0334
    130  CG        50.5880   41.1930   19.4870 C.3   397  ARG397      0.0492
    131  CD        50.4180   42.6270   18.9740 C.3   397  ARG397      0.2205
    132  NE        49.1150   42.8590   18.3530 N.pl3 397  ARG397     -0.0865
    133  CZ        48.7870   42.4950   17.1150 C.cat 397  ARG397      0.5346
    134  NH1       49.6670   41.8780   16.3420 N.pl3 397  ARG397      0.1354
    135  NH2       47.5700   42.7480   16.6500 N.pl3 397  ARG397      0.1354
@<TRIPOS>BOND
     1    47    48    1
     2    28    27    2
     3    27    26    1
     4    48    51    1
     5    48    49    1
     6    51    52    1
     7    49    50    2
     8    49    57   am
     9    57    58    1
    10    26    25    1
    11    26    29    1
    12    64    63    2
    13    41    42    2
    14    41    40    1
    15    61    58    1
    16    61    62    1
    17    53    52   ar
    18    53    55   ar
    19    58    59    1
    20    52    54   ar
    21    29    30    1
    22    63    62    1
    23    63    65   am
    24   108   109    1
    25    40    39    1
    26    40    43    1
    27   111   110    2
    28   107   106    2
    29   105   106    1
    30   105   104    1
    31    55    56   ar
    32    54    56   ar
    33    45    43    1
    34    35    32   ar
    35    35    37   ar
    36    59    60    2
    37    59    66   am
    38   104   101   am
    39    30    32   ar
    40    30    31   ar
    41   110   109    1
    42    43    44    1
    43   109   112    1
    44    99   100    1
    45    32    34   ar
    46    66    67    1
    47    37    38   ar
    48    31    33   ar
    49    19    20    2
    50    19    18    1
    51   101   100    1
    52   101   102    2
    53   112   113    1
    54    44    46    1
    55   100   103    1
    56   113   114    1
    57    34    33   ar
    58    34    36   ar
    59    18    21    1
    60    18    17    1
    61    67    70    1
    62    67    68    1
    63    38    36   ar
    64    24    22   ar
    65    69    68    2
    66    70    71    1
    67    21    22    1
    68   114   115    1
    69    22    23   ar
    70    78    77    2
    71   115   116    1
    72    79    77   am
    73    77    76    1
    74    98    96   ar
    75    76    73    1
    76    72    73    1
    77    12    11    2
    78    73    74    1
    79    96    97   ar
    80    96    95    1
    81     8     7    1
    82    16    14    1
    83    11    10    1
    84    95    92    1
    85     7     6    1
    86    10    13    1
    87    10     9    1
    88    74    75    2
    89    74    80   am
    90    13    14    1
    91    14    15    1
    92    80    81    1
    93    92    93    1
    94    92    91    1
    95     6     5    1
    96   134   133    1
    97    93    94    2
    98   135   133    1
    99    91    89   am
   100    85    84    1
   101    83    82    2
   102   133   132    2
   103    81    82    1
   104    81    84    1
   105     5     2    1
   106     2     3    1
   107     2     1    1
   108    82    87   am
   109   123   122    1
   110   124   122    1
   111     3     4    2
   112    84    86    1
   113   122   121    1
   114    89    90    2
   115    89    88    1
   116   132   131    1
   117    87    88    1
   118   131   130    1
   119   130   129    1
   120   121   118    1
   121   118   117    1
   122   118   119    1
   123   129   126    1
   124   126   127    1
   125   126   125    1
   126   119   125   am
   127   119   120    2
   128   127   128    2
