@<TRIPOS>MOLECULE
tmp/1venA01.pdb
 86 83 0 0 0
SMALL
GASTEIGER

@<TRIPOS>ATOM
      1  N         41.0320   49.0240   15.7080 N.3    95  VAL95      -0.1245
      2  CA        41.0930   48.8140   17.1500 C.3    95  VAL95       0.1561
      3  C         42.3740   48.0860   17.5560 C.2    95  VAL95       0.2260
      4  O         42.6510   46.9750   17.0910 O.2    95  VAL95      -0.2867
      5  CB        39.8550   48.0090   17.6520 C.3    95  VAL95       0.0252
      6  CG1       39.8110   46.6370   16.9870 C.3    95  VAL95       0.0019
      7  CG2       39.8990   47.8650   19.1690 C.3    95  VAL95       0.0019
      8  N         32.6480   48.7290    9.6350 N.3   178  TYR178     -0.1241
      9  CA        32.6670   49.3010   10.9840 C.3   178  TYR178      0.1605
     10  C         33.9360   50.1150   11.2280 C.2   178  TYR178      0.2264
     11  O         35.0100   49.5760   11.4870 O.2   178  TYR178     -0.2867
     12  CB        32.4890   48.2310   12.0860 C.3   178  TYR178      0.0534
     13  CG        33.3470   46.9830   11.9870 C.ar  178  TYR178     -0.0201
     14  CD1       32.9640   45.9140   11.1770 C.ar  178  TYR178     -0.0009
     15  CD2       34.5110   46.8520   12.7420 C.ar  178  TYR178     -0.0009
     16  CE1       33.7190   44.7320   11.1260 C.ar  178  TYR178      0.0417
     17  CE2       35.2750   45.6810   12.7000 C.ar  178  TYR178      0.0417
     18  CZ        34.8710   44.6230   11.8930 C.ar  178  TYR178      0.1957
     19  OH        35.6010   43.4550   11.8700 O.3   178  TYR178     -0.2866
     20  N         32.0280   49.7730   16.7480 N.3   186  TYR186     -0.1241
     21  CA        31.3360   48.8840   17.6810 C.3   186  TYR186      0.1605
     22  C         30.6310   49.7160   18.7490 C.2   186  TYR186      0.2264
     23  O         31.1940   50.6860   19.2470 O.2   186  TYR186     -0.2867
     24  CB        32.3530   47.9260   18.3170 C.3   186  TYR186      0.0534
     25  CG        31.8500   47.1540   19.5210 C.ar  186  TYR186     -0.0201
     26  CD1       31.8850   47.7200   20.7950 C.ar  186  TYR186     -0.0009
     27  CD2       31.3310   45.8630   19.3880 C.ar  186  TYR186     -0.0009
     28  CE1       31.4190   47.0290   21.9060 C.ar  186  TYR186      0.0417
     29  CE2       30.8550   45.1590   20.4990 C.ar  186  TYR186      0.0417
     30  CZ        30.9030   45.7560   21.7540 C.ar  186  TYR186      0.1957
     31  OH        30.4100   45.1060   22.8620 O.3   186  TYR186     -0.2866
     32  N         35.2040   38.0890   13.3400 N.3   290  GLY290     -0.1225
     33  CA        34.1280   37.7090   14.2310 C.3   290  GLY290      0.1811
     34  C         33.2810   38.9370   14.5180 C.2   290  GLY290      0.2280
     35  O         33.5080   39.6360   15.5070 O.2   290  GLY290     -0.2866
     36  N         30.4990   39.8450   15.9980 N.3   292  HIS292     -0.1226
     37  CA        29.5330   39.3390   16.9600 C.3   292  HIS292      0.1752
     38  C         28.4440   40.2870   17.4630 C.2   292  HIS292      0.2596
     39  O         27.4740   39.8270   18.0780 O.2   292  HIS292     -0.2718
     40  CB        30.2840   38.7960   18.1780 C.3   292  HIS292      0.0759
     41  CG        31.0610   39.8450   18.9080 C.ar  292  HIS292      0.0818
     42  ND1       32.3910   40.1030   18.6470 N.ar  292  HIS292     -0.2268
     43  CD2       30.6720   40.7640   19.8250 C.ar  292  HIS292      0.1154
     44  CE1       32.7850   41.1370   19.3690 C.ar  292  HIS292      0.1986
     45  NE2       31.7600   41.5560   20.0910 N.ar  292  HIS292     -0.2212
     46  N         28.5910   41.5910   17.2380 N.am  293  TRP293     -0.1976
     47  CA        27.5800   42.5190   17.7350 C.3   293  TRP293      0.1640
     48  C         26.3770   42.6590   16.8120 C.2   293  TRP293      0.2290
     49  O         26.4780   42.4410   15.6010 O.2   293  TRP293     -0.2864
     50  CB        28.2060   43.8900   18.0580 C.3   293  TRP293      0.0576
     51  CG        28.9320   44.5870   16.9410 C.ar  293  TRP293      0.0006
     52  CD1       28.4700   45.6290   16.1910 C.ar  293  TRP293      0.0946
     53  CD2       30.2620   44.3180   16.4770 C.ar  293  TRP293      0.0152
     54  NE1       29.4290   46.0310   15.2900 N.ar  293  TRP293     -0.2442
     55  CE2       30.5380   45.2440   15.4420 C.ar  293  TRP293      0.0810
     56  CE3       31.2460   43.3850   16.8330 C.ar  293  TRP293      0.0012
     57  CZ2       31.7590   45.2650   14.7560 C.ar  293  TRP293      0.0191
     58  CZ3       32.4660   43.4030   16.1470 C.ar  293  TRP293      0.0001
     59  CH2       32.7080   44.3390   15.1200 C.ar  293  TRP293      0.0015
     60  N         37.5910   35.8350   18.2040 N.3   331  CYS331     -0.1235
     61  CA        36.7350   35.8900   19.3880 C.3   331  CYS331      0.1677
     62  C         36.5410   34.5590   20.1010 C.2   331  CYS331      0.2270
     63  O         35.4630   34.2960   20.6360 O.2   331  CYS331     -0.2867
     64  CB        35.3590   36.4490   19.0200 C.3   331  CYS331      0.0956
     65  SG        35.4020   38.0920   18.3130 S.3   331  CYS331     -0.0801
     66  N         35.6280   35.0860   24.0510 N.3   334  MET334     -0.1245
     67  CA        34.4050   35.7260   24.5520 C.3   334  MET334      0.1570
     68  C         33.2210   34.7920   24.8190 C.2   334  MET334      0.2261
     69  O         33.1990   33.6510   24.3690 O.2   334  MET334     -0.2867
     70  CB        33.9700   36.8270   23.5720 C.3   334  MET334      0.0387
     71  CG        35.0670   37.8230   23.2280 C.3   334  MET334      0.0595
     72  SD        34.5490   39.1150   22.0540 S.3   334  MET334     -0.1393
     73  CE        36.0080   40.1730   22.0930 C.3   334  MET334      0.0692
     74  N         40.1470   37.8590   20.0640 N.3   369  ALA369     -0.1231
     75  CA        39.9180   39.1780   19.4900 C.3   369  ALA369      0.1694
     76  C         40.6090   40.2990   20.2710 C.2   369  ALA369      0.2591
     77  O         41.2030   41.2000   19.6760 O.2   369  ALA369     -0.2718
     78  CB        38.4260   39.4480   19.4030 C.3   369  ALA369      0.0304
     79  N         40.5300   40.2340   21.5970 N.am  370  LEU370     -0.1980
     80  CA        41.1330   41.2400   22.4750 C.3   370  LEU370      0.1596
     81  C         42.1920   40.6320   23.3780 C.2   370  LEU370      0.2287
     82  O         42.2040   39.4240   23.6000 O.2   370  LEU370     -0.2864
     83  CB        40.0490   41.8970   23.3410 C.3   370  LEU370      0.0297
     84  CG        39.3010   43.1210   22.7930 C.3   370  LEU370      0.0022
     85  CD1       39.0290   42.9700   21.3190 C.3   370  LEU370      0.0001
     86  CD2       37.9930   43.3070   23.5650 C.3   370  LEU370      0.0001
@<TRIPOS>BOND
     1     8     9    1
     2     9    10    1
     3     9    12    1
     4    16    14   ar
     5    16    18   ar
     6    14    13   ar
     7    10    11    2
     8    19    18    1
     9    18    17   ar
    10    13    12    1
    11    13    15   ar
    12    17    15   ar
    13    32    33    1
    14    33    34    1
    15    34    35    2
    16    57    59   ar
    17    57    55   ar
    18    59    58   ar
    19    54    55   ar
    20    54    52   ar
    21    55    53   ar
    22    49    48    2
    23     1     2    1
    24    36    37    1
    25    58    56   ar
    26    52    51   ar
    27    53    56   ar
    28    53    51   ar
    29    20    21    1
    30    48    47    1
    31    51    50    1
    32    37    38    1
    33    37    40    1
    34     6     5    1
    35     4     3    2
    36     2     3    1
    37     2     5    1
    38    46    38   am
    39    46    47    1
    40    38    39    2
    41     5     7    1
    42    21    24    1
    43    21    22    1
    44    47    50    1
    45    40    41    1
    46    60    61    1
    47    65    64    1
    48    24    25    1
    49    42    41   ar
    50    42    44   ar
    51    22    23    2
    52    41    43   ar
    53    64    61    1
    54    44    45   ar
    55    27    25   ar
    56    27    29   ar
    57    61    62    1
    58    78    75    1
    59    75    74    1
    60    75    76    1
    61    25    26   ar
    62    77    76    2
    63    43    45   ar
    64    62    63    2
    65    76    79   am
    66    29    30   ar
    67    26    28   ar
    68    85    84    1
    69    79    80    1
    70    30    28   ar
    71    30    31    1
    72    72    73    1
    73    72    71    1
    74    80    83    1
    75    80    81    1
    76    84    83    1
    77    84    86    1
    78    71    70    1
    79    81    82    2
    80    70    67    1
    81    66    67    1
    82    69    68    2
    83    67    68    1
