@<TRIPOS>MOLECULE
tmp/1vevB00.pdb
 131 127 0 0 0
SMALL
GASTEIGER

@<TRIPOS>ATOM
      1  N         21.0720   21.8360   17.0760 N.3    46  GLY46      -0.1210
      2  CA        20.1150   20.7450   17.0560 C.3    46  GLY46       0.1956
      3  C         19.3480   20.5440   18.3480 C.2    46  GLY46       0.2612
      4  O         19.7460   21.0430   19.4020 O.2    46  GLY46      -0.2717
      5  N         18.2400   19.8120   18.2580 N.am   47  VAL47      -0.1965
      6  CA        17.3930   19.5130   19.4080 C.3    47  VAL47       0.1727
      7  C         17.8140   18.1610   19.9790 C.2    47  VAL47       0.2616
      8  O         17.5810   17.8560   21.1550 O.2    47  VAL47      -0.2715
      9  CB        15.9120   19.4150   18.9930 C.3    47  VAL47       0.0290
     10  CG1       15.0450   19.1680   20.1990 C.3    47  VAL47       0.0023
     11  CG2       15.4840   20.6800   18.3090 C.3    47  VAL47       0.0023
     12  N         18.4270   17.3520   19.1220 N.am   48  GLY48      -0.1955
     13  CA        18.8700   16.0310   19.5160 C.3    48  GLY48       0.1869
     14  C         19.9270   15.5340   18.5530 C.2    48  GLY48       0.2309
     15  O         20.1580   16.1450   17.5100 O.2    48  GLY48      -0.2863
     16  N         24.6490    9.2330   13.7640 N.3    53  GLN53      -0.1245
     17  CA        24.7830   10.4420   12.9540 C.3    53  GLN53       0.1566
     18  C         26.2350   10.9270   12.8660 C.2    53  GLN53       0.2260
     19  O         26.5740   11.7580   12.0260 O.2    53  GLN53      -0.2867
     20  CB        23.8970   11.5590   13.5080 C.3    53  GLN53       0.0367
     21  CG        22.4190   11.2140   13.5590 C.3    53  GLN53       0.0905
     22  CD        21.5540   12.4210   13.8710 C.2    53  GLN53       0.2608
     23  OE1       21.3980   13.3150   13.0430 O.2    53  GLN53      -0.2717
     24  NE2       20.9980   12.4560   15.0680 N.am   53  GLN53      -0.0878
     25  N         16.3670   26.7260   14.8100 N.3    70  ARG70      -0.1231
     26  CA        15.9780   26.0150   13.6020 C.3    70  ARG70       0.1694
     27  C         14.5250   25.5430   13.6580 C.2    70  ARG70       0.2592
     28  O         13.9550   25.1480   12.6450 O.2    70  ARG70      -0.2718
     29  CB        16.9340   24.8470   13.3470 C.3    70  ARG70       0.0321
     30  CG        18.3640   25.3250   13.1130 C.3    70  ARG70       0.0489
     31  CD        19.2180   24.3260   12.3580 C.3    70  ARG70       0.2205
     32  NE        19.2770   23.0560   13.0570 N.pl3  70  ARG70      -0.0865
     33  CZ        18.6310   21.9630   12.6760 C.cat  70  ARG70       0.5346
     34  NH1       17.8760   21.9760   11.5870 N.pl3  70  ARG70       0.1354
     35  NH2       18.7300   20.8590   13.3960 N.pl3  70  ARG70       0.1354
     36  N         13.9300   25.5980   14.8460 N.am   71  TYR71      -0.1976
     37  CA        12.5350   25.2130   15.0400 C.3    71  TYR71       0.1639
     38  C         11.9280   26.2050   16.0160 C.2    71  TYR71       0.2290
     39  O         11.5980   25.8640   17.1500 O.2    71  TYR71      -0.2864
     40  CB        12.4210   23.7950   15.6010 C.3    71  TYR71       0.0560
     41  CG        13.0110   22.7440   14.6950 C.ar   71  TYR71      -0.0198
     42  CD1       14.2590   22.1860   14.9670 C.ar   71  TYR71      -0.0009
     43  CD2       12.3400   22.3330   13.5450 C.ar   71  TYR71      -0.0009
     44  CE1       14.8260   21.2470   14.1190 C.ar   71  TYR71       0.0417
     45  CE2       12.8990   21.3910   12.6850 C.ar   71  TYR71       0.0417
     46  CZ        14.1450   20.8530   12.9770 C.ar   71  TYR71       0.1957
     47  OH        14.7180   19.9360   12.1240 O.3    71  TYR71      -0.2866
     48  N          4.0130   17.3790   12.5100 N.3    97  PHE97      -0.1241
     49  CA         5.0560   18.3710   12.7060 C.3    97  PHE97       0.1605
     50  C          5.9970   18.3500   11.5030 C.2    97  PHE97       0.2264
     51  O          6.2570   17.2860   10.9370 O.2    97  PHE97      -0.2867
     52  CB         5.8380   18.0360   13.9780 C.3    97  PHE97       0.0534
     53  CG         6.8820   19.0510   14.3360 C.ar   97  PHE97      -0.0203
     54  CD1        6.5630   20.1440   15.1410 C.ar   97  PHE97      -0.0042
     55  CD2        8.1800   18.9290   13.8520 C.ar   97  PHE97      -0.0042
     56  CE1        7.5300   21.1060   15.4590 C.ar   97  PHE97      -0.0003
     57  CE2        9.1480   19.8820   14.1620 C.ar   97  PHE97      -0.0003
     58  CZ         8.8210   20.9710   14.9670 C.ar   97  PHE97      -0.0000
     59  N          9.2170   18.0480   10.5200 N.3    99  GLU99      -0.1231
     60  CA        10.5250   17.6370   11.0050 C.3    99  GLU99       0.1699
     61  C         11.6900   17.9800   10.0890 C.2    99  GLU99       0.2593
     62  O         11.5430   18.1250    8.8720 O.2    99  GLU99      -0.2718
     63  CB        10.5350   16.1270   11.2780 C.3    99  GLU99       0.0402
     64  CG         9.6590   15.7030   12.4470 C.3    99  GLU99       0.1161
     65  CD         9.7880   14.2250   12.7820 C.2    99  GLU99       0.3649
     66  OE1       10.9230   13.6930   12.7320 O.co2  99  GLU99      -0.2457
     67  OE2        8.7550   13.6020   13.1110 O.co2  99  GLU99      -0.2457
     68  N         12.8540   18.1050   10.7090 N.am  100  GLY100     -0.1942
     69  CA        14.0730   18.3780    9.9900 C.3   100  GLY100      0.2014
     70  C         15.0280   17.3440   10.5450 C.2   100  GLY100      0.2639
     71  O         14.6400   16.5360   11.3920 O.2   100  GLY100     -0.2714
     72  N         16.2650   17.3440   10.0730 N.am  101  CYS101     -0.1953
     73  CA        17.2560   16.3920   10.5560 C.3   101  CYS101      0.1843
     74  C         18.6270   16.9100   10.1730 C.2   101  CYS101      0.2625
     75  O         18.8240   17.3920    9.0570 O.2   101  CYS101     -0.2714
     76  CB        17.0270   15.0140    9.9410 C.3   101  CYS101      0.0997
     77  SG        18.2890   13.7990   10.3850 S.3   101  CYS101     -0.0797
     78  N         19.5720   16.8250   11.1020 N.am  102  LEU102     -0.1977
     79  CA        20.9120   17.3150   10.8360 C.3   102  LEU102      0.1596
     80  C         21.5950   16.4900    9.7660 C.2   102  LEU102      0.2287
     81  O         22.5840   16.9270    9.1730 O.2   102  LEU102     -0.2864
     82  CB        21.7370   17.3160   12.1200 C.3   102  LEU102      0.0297
     83  CG        21.2020   18.3020   13.1640 C.3   102  LEU102      0.0022
     84  CD1       21.9670   18.1420   14.4660 C.3   102  LEU102      0.0001
     85  CD2       21.3150   19.7230   12.6290 C.3   102  LEU102      0.0001
     86  N          5.9160   17.7030   22.2360 N.3   136  TYR136     -0.1241
     87  CA         7.0990   17.8700   21.4150 C.3   136  TYR136      0.1605
     88  C          8.2070   16.8650   21.7340 C.2   136  TYR136      0.2264
     89  O          8.8620   16.3550   20.8210 O.2   136  TYR136     -0.2867
     90  CB         7.6160   19.3000   21.5600 C.3   136  TYR136      0.0534
     91  CG         8.7940   19.6200   20.6810 C.ar  136  TYR136     -0.0201
     92  CD1        8.7180   19.4740   19.2950 C.ar  136  TYR136     -0.0009
     93  CD2        9.9950   20.0630   21.2330 C.ar  136  TYR136     -0.0009
     94  CE1        9.8130   19.7610   18.4810 C.ar  136  TYR136      0.0417
     95  CE2       11.0960   20.3530   20.4300 C.ar  136  TYR136      0.0417
     96  CZ        10.9980   20.1990   19.0600 C.ar  136  TYR136      0.1957
     97  OH        12.0910   20.4770   18.2770 O.3   136  TYR136     -0.2866
     98  N          7.9320   13.5810   20.0670 N.3   139  ILE139     -0.1231
     99  CA         8.2990   13.6550   18.6700 C.3   139  ILE139      0.1692
    100  C          9.8120   13.5880   18.5530 C.2   139  ILE139      0.2591
    101  O         10.3410   12.8990   17.6900 O.2   139  ILE139     -0.2718
    102  CB         7.7670   14.9510   18.0370 C.3   139  ILE139      0.0266
    103  CG1        6.2390   14.9060   18.0240 C.3   139  ILE139      0.0019
    104  CG2        8.3140   15.1200   16.6250 C.3   139  ILE139      0.0020
    105  CD1        5.5980   16.1470   17.4900 C.3   139  ILE139      0.0001
    106  N         10.5150   14.2840   19.4350 N.am  140  VAL140     -0.1980
    107  CA        11.9680   14.2720   19.3840 C.3   140  VAL140      0.1595
    108  C         12.5400   12.8820   19.6560 C.2   140  VAL140      0.2287
    109  O         13.4130   12.3980   18.9260 O.2   140  VAL140     -0.2864
    110  CB        12.5610   15.2620   20.3990 C.3   140  VAL140      0.0276
    111  CG1       14.0610   15.0480   20.5260 C.3   140  VAL140      0.0022
    112  CG2       12.2680   16.6810   19.9550 C.3   140  VAL140      0.0022
    113  N         11.9860   10.3190   16.8250 N.3   143  HIS143     -0.1226
    114  CA        12.8960   10.6660   15.7440 C.3   143  HIS143      0.1752
    115  C         14.2960   10.1790   16.0960 C.2   143  HIS143      0.2595
    116  O         14.9560    9.5350   15.2810 O.2   143  HIS143     -0.2718
    117  CB        12.8840   12.1870   15.5320 C.3   143  HIS143      0.0759
    118  CG        13.9180   12.6940   14.5690 C.ar  143  HIS143      0.0818
    119  ND1       13.6240   13.4200   13.4320 N.ar  143  HIS143     -0.2268
    120  CD2       15.2730   12.6600   14.6390 C.ar  143  HIS143      0.1154
    121  CE1       14.7800   13.8040   12.8730 C.ar  143  HIS143      0.1986
    122  NE2       15.8110   13.3670   13.5680 N.ar  143  HIS143     -0.2212
    123  N         14.7450   10.4690   17.3140 N.am  144  GLU144     -0.1979
    124  CA        16.0780   10.0590   17.7340 C.3   144  GLU144      0.1602
    125  C         16.2730    8.5560   17.7570 C.2   144  GLU144      0.2287
    126  O         17.3030    8.0520   17.3020 O.2   144  GLU144     -0.2864
    127  CB        16.4100   10.6370   19.1070 C.3   144  GLU144      0.0415
    128  CG        16.6040   12.1470   19.0960 C.3   144  GLU144      0.1163
    129  CD        17.4180   12.6220   17.9010 C.2   144  GLU144      0.3649
    130  OE1       18.4670   12.0020   17.6050 O.co2 144  GLU144     -0.2457
    131  OE2       17.0090   13.6190   17.2650 O.co2 144  GLU144     -0.2457
@<TRIPOS>BOND
     1    62    61    2
     2    75    74    2
     3    81    80    2
     4    80    79    1
     5    76    77    1
     6    76    73    1
     7    69    70    1
     8    69    68    1
     9    72    70   am
    10    72    73    1
    11    61    68   am
    12    61    60    1
    13    74    73    1
    14    74    78   am
    15    59    60    1
    16    70    71    2
    17    79    78    1
    18    79    82    1
    19    51    50    2
    20    60    63    1
    21    63    64    1
    22    50    49    1
    23    34    33    1
    24    19    18    2
    25    82    83    1
    26    47    46    1
    27    31    32    1
    28    31    30    1
    29    64    65    1
    30    48    49    1
    31    85    83    1
    32    28    27    2
    33    33    32    2
    34    33    35    1
    35    45    46   ar
    36    45    43   ar
    37    49    52    1
    38    66    65   ar
    39    65    67   ar
    40    18    17    1
    41   121   119   ar
    42   121   122   ar
    43    17    20    1
    44    17    16    1
    45    46    44   ar
    46    23    22    2
    47    30    29    1
    48    83    84    1
    49    29    26    1
    50   119   118   ar
    51    20    21    1
    52    43    41   ar
    53    21    22    1
    54   122   120   ar
    55    26    27    1
    56    26    25    1
    57    27    36   am
    58    55    57   ar
    59    55    53   ar
    60    22    24   am
    61    52    53    1
    62    44    42   ar
    63    57    58   ar
    64    53    54   ar
    65   118   120   ar
    66   118   117    1
    67    41    42   ar
    68    41    40    1
    69    36    37    1
    70    58    56   ar
    71    37    40    1
    72    37    38    1
    73    54    56   ar
    74   116   115    2
    75   117   114    1
    76   114   115    1
    77   114   113    1
    78    38    39    2
    79   115   123   am
    80   104   102    1
    81     2     1    1
    82     2     3    1
    83   131   129   ar
    84   126   125    2
    85   123   124    1
    86   105   103    1
    87    15    14    2
    88   130   129   ar
    89   101   100    2
    90   124   125    1
    91   124   127    1
    92   129   128    1
    93   103   102    1
    94   102    99    1
    95     5     3   am
    96     5     6    1
    97    97    96    1
    98    11     9    1
    99     3     4    2
   100    94    96   ar
   101    94    92   ar
   102   100    99    1
   103   100   106   am
   104    14    13    1
   105    99    98    1
   106   109   108    2
   107     9     6    1
   108     9    10    1
   109    96    95   ar
   110   128   127    1
   111    12    13    1
   112    12     7   am
   113    92    91   ar
   114   107   106    1
   115   107   108    1
   116   107   110    1
   117     6     7    1
   118   112   110    1
   119     7     8    2
   120   110   111    1
   121    95    93   ar
   122    91    93   ar
   123    91    90    1
   124    89    88    2
   125    87    90    1
   126    87    88    1
   127    87    86    1
