@<TRIPOS>MOLECULE
tmp/1veyA00.pdb
 143 142 0 0 0
SMALL
GASTEIGER

@<TRIPOS>ATOM
      1  N         22.5950   61.9230   68.0500 N.3    46  GLY46      -0.1210
      2  CA        21.5750   62.9430   67.9190 C.3    46  GLY46       0.1956
      3  C         21.2840   63.6190   69.2380 C.2    46  GLY46       0.2612
      4  O         21.6290   63.0940   70.2960 O.2    46  GLY46      -0.2717
      5  N         20.6600   64.7920   69.1720 N.am   47  VAL47      -0.1965
      6  CA        20.2940   65.5510   70.3640 C.3    47  VAL47       0.1727
      7  C         19.0410   64.9510   70.9790 C.2    47  VAL47       0.2616
      8  O         18.8010   65.0840   72.1720 O.2    47  VAL47      -0.2715
      9  CB        19.9910   67.0300   70.0390 C.3    47  VAL47       0.0290
     10  CG1       19.4100   67.7150   71.2490 C.3    47  VAL47       0.0023
     11  CG2       21.2510   67.7440   69.5950 C.3    47  VAL47       0.0023
     12  N         18.2360   64.2910   70.1620 N.am   48  GLY48      -0.1955
     13  CA        17.0250   63.7050   70.6900 C.3    48  GLY48       0.1869
     14  C         16.4170   62.7100   69.7340 C.2    48  GLY48       0.2309
     15  O         16.9870   62.4270   68.6870 O.2    48  GLY48      -0.2863
     16  N         27.8540   65.9480   65.9140 N.3    70  ARG70      -0.1231
     17  CA        26.9870   66.2890   64.7840 C.3    70  ARG70       0.1694
     18  C         26.5660   67.7450   64.7560 C.2    70  ARG70       0.2592
     19  O         26.2500   68.2850   63.7010 O.2    70  ARG70      -0.2718
     20  CB        25.7470   65.3910   64.7520 C.3    70  ARG70       0.0321
     21  CG        25.9410   64.1400   63.9050 C.3    70  ARG70       0.0489
     22  CD        24.7310   63.2230   63.9020 C.3    70  ARG70       0.2205
     23  NE        23.5370   63.8610   63.3540 N.pl3  70  ARG70      -0.0865
     24  CZ        22.5260   64.3310   64.0840 C.cat  70  ARG70       0.5346
     25  NH1       22.5560   64.2440   65.4060 N.pl3  70  ARG70       0.1354
     26  NH2       21.4680   64.8710   63.4940 N.pl3  70  ARG70       0.1354
     27  N         26.5590   68.3850   65.9160 N.am   71  TYR71      -0.1976
     28  CA        26.1970   69.7960   65.9960 C.3    71  TYR71       0.1639
     29  C         27.1580   70.4710   66.9740 C.2    71  TYR71       0.2290
     30  O         26.7540   70.9770   68.0220 O.2    71  TYR71      -0.2864
     31  CB        24.7500   69.9490   66.4700 C.3    71  TYR71       0.0560
     32  CG        23.7440   69.1840   65.6340 C.ar   71  TYR71      -0.0198
     33  CD1       23.2800   67.9310   66.0340 C.ar   71  TYR71      -0.0009
     34  CD2       23.2580   69.7120   64.4380 C.ar   71  TYR71      -0.0009
     35  CE1       22.3550   67.2270   65.2660 C.ar   71  TYR71       0.0417
     36  CE2       22.3340   69.0130   63.6630 C.ar   71  TYR71       0.0417
     37  CZ        21.8860   67.7750   64.0850 C.ar   71  TYR71       0.1957
     38  OH        20.9510   67.1080   63.3380 O.3    71  TYR71      -0.2866
     39  N         26.3540   73.8990   69.6140 N.3    74  THR74      -0.1218
     40  CA        25.3350   73.6780   70.6400 C.3    74  THR74       0.1862
     41  C         25.7590   73.2370   72.0350 C.2    74  THR74       0.2287
     42  O         26.7010   72.4600   72.2130 O.2    74  THR74      -0.2866
     43  CB        24.2910   72.6780   70.1560 C.3    74  THR74       0.1770
     44  OG1       24.9250   71.4130   69.9180 O.3    74  THR74      -0.2211
     45  CG2       23.6350   73.1840   68.8770 C.3    74  THR74       0.0375
     46  N         18.3100   78.4590   63.3940 N.3    97  PHE97      -0.1227
     47  CA        19.2860   77.3770   63.4540 C.3    97  PHE97       0.1736
     48  C         19.2270   76.5130   62.2070 C.2    97  PHE97       0.2595
     49  O         18.1530   76.2670   61.6610 O.2    97  PHE97      -0.2718
     50  CB        19.0340   76.4550   64.6550 C.3    97  PHE97       0.0547
     51  CG        19.2270   77.1130   65.9860 C.ar   97  PHE97      -0.0202
     52  CD1       18.1430   77.6620   66.6680 C.ar   97  PHE97      -0.0042
     53  CD2       20.4960   77.2020   66.5550 C.ar   97  PHE97      -0.0042
     54  CE1       18.3240   78.2930   67.9010 C.ar   97  PHE97      -0.0003
     55  CE2       20.6890   77.8310   67.7880 C.ar   97  PHE97      -0.0003
     56  CZ        19.6020   78.3780   68.4620 C.ar   97  PHE97      -0.0000
     57  N         20.3880   76.0510   61.7580 N.am   98  TRP98      -0.1962
     58  CA        20.4380   75.1680   60.6090 C.3    98  TRP98       0.1771
     59  C         20.1830   73.7930   61.1790 C.2    98  TRP98       0.2620
     60  O         21.1170   73.0430   61.4440 O.2    98  TRP98      -0.2715
     61  CB        21.8130   75.1960   59.9400 C.3    98  TRP98       0.0590
     62  CG        22.0360   76.3960   59.0970 C.ar   98  TRP98       0.0006
     63  CD1       22.3890   77.6310   59.5230 C.ar   98  TRP98       0.0946
     64  CD2       21.8370   76.4980   57.6810 C.ar   98  TRP98       0.0152
     65  NE1       22.4180   78.5050   58.4690 N.ar   98  TRP98      -0.2442
     66  CE2       22.0840   77.8340   57.3240 C.ar   98  TRP98       0.0810
     67  CE3       21.4690   75.5880   56.6800 C.ar   98  TRP98       0.0012
     68  CZ2       21.9770   78.2910   56.0060 C.ar   98  TRP98       0.0191
     69  CZ3       21.3600   76.0420   55.3680 C.ar   98  TRP98       0.0001
     70  CH2       21.6140   77.3810   55.0460 C.ar   98  TRP98       0.0015
     71  N         18.9140   73.4730   61.3900 N.am   99  GLU99      -0.1963
     72  CA        18.5440   72.1840   61.9470 C.3    99  GLU99       0.1733
     73  C         18.8410   70.9900   61.0580 C.2    99  GLU99       0.2617
     74  O         19.0290   71.1100   59.8480 O.2    99  GLU99      -0.2715
     75  CB        17.0600   72.1610   62.2860 C.3    99  GLU99       0.0429
     76  CG        16.6860   72.9070   63.5300 C.3    99  GLU99       0.1163
     77  CD        15.2000   72.8540   63.7930 C.2    99  GLU99       0.3649
     78  OE1       14.5990   71.7720   63.6210 O.co2  99  GLU99      -0.2457
     79  OE2       14.6380   73.8970   64.1820 O.co2  99  GLU99      -0.2457
     80  N         18.8670   69.8270   61.6920 N.am  100  GLY100     -0.1940
     81  CA        19.1020   68.5840   60.9920 C.3   100  GLY100      0.2014
     82  C         18.2080   67.5600   61.6560 C.2   100  GLY100      0.2639
     83  O         17.5620   67.8670   62.6520 O.2   100  GLY100     -0.2714
     84  N         18.1550   66.3520   61.1160 N.am  101  CYS101     -0.1953
     85  CA        17.3310   65.3120   61.7100 C.3   101  CYS101      0.1843
     86  C         17.8740   63.9420   61.3400 C.2   101  CYS101      0.2625
     87  O         18.3390   63.7300   60.2290 O.2   101  CYS101     -0.2714
     88  CB        15.8830   65.4690   61.2470 C.3   101  CYS101      0.0997
     89  SG        14.8050   64.1040   61.6600 S.3   101  CYS101     -0.0797
     90  N         17.8370   63.0090   62.2770 N.am  102  LEU102     -0.1977
     91  CA        18.3520   61.6800   61.9970 C.3   102  LEU102      0.1596
     92  C         17.5390   61.0070   60.9250 C.2   102  LEU102      0.2287
     93  O         18.0130   60.0690   60.2900 O.2   102  LEU102     -0.2864
     94  CB        18.3310   60.8190   63.2520 C.3   102  LEU102      0.0297
     95  CG        19.3310   61.2140   64.3350 C.3   102  LEU102      0.0022
     96  CD1       19.0090   60.4430   65.5900 C.3   102  LEU102      0.0001
     97  CD2       20.7560   60.9390   63.8640 C.3   102  LEU102      0.0001
     98  N         18.0810   77.1880   73.1830 N.3   136  TYR136     -0.1241
     99  CA        18.3030   75.9050   72.5400 C.3   136  TYR136      0.1605
    100  C         17.3750   74.7890   73.0120 C.2   136  TYR136      0.2264
    101  O         16.8510   74.0420   72.1940 O.2   136  TYR136     -0.2867
    102  CB        19.7640   75.4900   72.7070 C.3   136  TYR136      0.0534
    103  CG        20.1520   74.3160   71.8510 C.ar  136  TYR136     -0.0201
    104  CD1       20.0310   74.3700   70.4630 C.ar  136  TYR136     -0.0009
    105  CD2       20.6020   73.1310   72.4290 C.ar  136  TYR136     -0.0009
    106  CE1       20.3410   73.2610   69.6710 C.ar  136  TYR136      0.0417
    107  CE2       20.9160   72.0180   71.6490 C.ar  136  TYR136      0.0417
    108  CZ        20.7780   72.0840   70.2700 C.ar  136  TYR136      0.1957
    109  OH        21.0290   70.9600   69.5080 O.3   136  TYR136     -0.2866
    110  N         14.0920   74.9660   71.3300 N.3   139  ILE139     -0.1231
    111  CA        14.2860   74.5760   69.9510 C.3   139  ILE139      0.1692
    112  C         14.1720   73.0640   69.8250 C.2   139  ILE139      0.2591
    113  O         13.3060   72.5490   69.1280 O.2   139  ILE139     -0.2718
    114  CB        15.6740   74.9970   69.4660 C.3   139  ILE139      0.0266
    115  CG1       15.8160   76.5170   69.5590 C.3   139  ILE139      0.0019
    116  CG2       15.8990   74.5090   68.0650 C.3   139  ILE139      0.0020
    117  CD1       14.6920   77.3100   68.9160 C.3   139  ILE139      0.0001
    118  N         15.0460   72.3530   70.5180 N.am  140  VAL140     -0.1980
    119  CA        15.0360   70.9120   70.4500 C.3   140  VAL140      0.1595
    120  C         13.6900   70.3390   70.8400 C.2   140  VAL140      0.2287
    121  O         13.1630   69.4790   70.1540 O.2   140  VAL140     -0.2864
    122  CB        16.1200   70.3050   71.3600 C.3   140  VAL140      0.0276
    123  CG1       16.3110   68.8380   71.0370 C.3   140  VAL140      0.0022
    124  CG2       17.4200   71.0470   71.1830 C.3   140  VAL140      0.0022
    125  N         11.2800   70.8450   68.0520 N.3   143  HIS143     -0.1226
    126  CA        11.7170   69.9930   66.9630 C.3   143  HIS143      0.1752
    127  C         11.2420   68.5780   67.1850 C.2   143  HIS143      0.2595
    128  O         10.8240   67.9090   66.2570 O.2   143  HIS143     -0.2718
    129  CB        13.2430   69.9790   66.8740 C.3   143  HIS143      0.0759
    130  CG        13.7820   69.0840   65.7980 C.ar  143  HIS143      0.0818
    131  ND1       14.3270   69.5360   64.6150 N.ar  143  HIS143     -0.2268
    132  CD2       13.8310   67.7300   65.7280 C.ar  143  HIS143      0.1154
    133  CE1       14.6780   68.4680   63.8860 C.ar  143  HIS143      0.1986
    134  NE2       14.3960   67.3480   64.5200 N.ar  143  HIS143     -0.2212
    135  N         11.3100   68.1080   68.4170 N.am  144  GLU144     -0.1979
    136  CA        10.9000   66.7500   68.6630 C.3   144  GLU144      0.1602
    137  C          9.4170   66.5240   68.8850 C.2   144  GLU144      0.2287
    138  O          8.9360   65.4140   68.7120 O.2   144  GLU144     -0.2864
    139  CB        11.7130   66.1560   69.8040 C.3   144  GLU144      0.0415
    140  CG        12.5650   64.9670   69.3500 C.3   144  GLU144      0.1163
    141  CD        13.7110   65.3870   68.4500 C.2   144  GLU144      0.3649
    142  OE1       14.2710   64.5260   67.7300 O.co2 144  GLU144     -0.2457
    143  OE2       14.0570   66.5860   68.4780 O.co2 144  GLU144     -0.2457
@<TRIPOS>BOND
     1    70    69   ar
     2    70    68   ar
     3    69    67   ar
     4    68    66   ar
     5    67    64   ar
     6    66    64   ar
     7    66    65   ar
     8    64    62   ar
     9    65    63   ar
    10    62    63   ar
    11    62    61    1
    12    74    73    2
    13    61    58    1
    14    87    86    2
    15    93    92    2
    16    58    59    1
    17    58    57    1
    18    92    91    1
    19    81    82    1
    20    81    80    1
    21    73    80   am
    22    73    72    1
    23    84    82   am
    24    84    85    1
    25    59    71   am
    26    59    60    2
    27    88    89    1
    28    88    85    1
    29    86    85    1
    30    86    90   am
    31    71    72    1
    32    82    83    2
    33    49    48    2
    34    57    48   am
    35    72    75    1
    36    91    90    1
    37    91    94    1
    38    48    47    1
    39    75    76    1
    40    94    95    1
    41    38    37    1
    42    23    22    1
    43    23    24    2
    44    46    47    1
    45    47    50    1
    46    26    24    1
    47    76    77    1
    48    78    77   ar
    49    36    37   ar
    50    36    34   ar
    51    19    18    2
    52    77    79   ar
    53    97    95    1
    54   133   134   ar
    55   133   131   ar
    56    22    21    1
    57    21    20    1
    58    24    25    1
    59    37    35   ar
    60    95    96    1
    61    34    32   ar
    62   134   132   ar
    63   131   130   ar
    64    50    51    1
    65    20    17    1
    66    18    17    1
    67    18    27   am
    68    17    16    1
    69    35    33   ar
    70    32    33   ar
    71    32    31    1
    72   132   130   ar
    73   130   129    1
    74    27    28    1
    75    51    53   ar
    76    51    52   ar
    77    28    31    1
    78    28    29    1
    79   128   127    2
    80    53    55   ar
    81    52    54   ar
    82   129   126    1
    83   126   127    1
    84   126   125    1
    85    29    30    2
    86   127   135   am
    87   142   141   ar
    88    55    56   ar
    89    54    56   ar
    90     2     1    1
    91     2     3    1
    92   116   114    1
    93   135   136    1
    94   141   143   ar
    95   141   140    1
    96   136   137    1
    97   136   139    1
    98    15    14    2
    99   138   137    2
   100    45    43    1
   101   117   115    1
   102   113   112    2
   103     5     3   am
   104     5     6    1
   105     3     4    2
   106   140   139    1
   107   114   115    1
   108   114   111    1
   109   109   108    1
   110    11     9    1
   111    39    40    1
   112   106   108   ar
   113   106   104   ar
   114    14    13    1
   115   112   111    1
   116   112   118   am
   117    44    43    1
   118   111   110    1
   119     9     6    1
   120     9    10    1
   121   121   120    2
   122    43    40    1
   123    12    13    1
   124    12     7   am
   125   108   107   ar
   126     6     7    1
   127   119   118    1
   128   119   120    1
   129   119   122    1
   130   104   103   ar
   131    40    41    1
   132     7     8    2
   133   123   122    1
   134   124   122    1
   135   107   105   ar
   136   103   105   ar
   137   103   102    1
   138    41    42    2
   139   101   100    2
   140    99   102    1
   141    99   100    1
   142    99    98    1
