@<TRIPOS>MOLECULE
tmp/1vezA00.pdb
 74 71 0 0 0
SMALL
GASTEIGER

@<TRIPOS>ATOM
      1  N         26.3230   64.8760   65.4810 N.3    70  ARG70      -0.1245
      2  CA        25.5360   65.2610   64.3180 C.3    70  ARG70       0.1563
      3  C         25.1360   66.7310   64.3990 C.2    70  ARG70       0.2260
      4  O         24.9540   67.3800   63.3740 O.2    70  ARG70      -0.2867
      5  CB        24.2940   64.3710   64.1760 C.3    70  ARG70       0.0307
      6  CG        24.5790   63.0380   63.4870 C.3    70  ARG70       0.0489
      7  CD        23.3520   62.1310   63.4320 C.3    70  ARG70       0.2205
      8  NE        22.1990   62.7690   62.8030 N.pl3  70  ARG70      -0.0865
      9  CZ        21.1080   63.1820   63.4510 C.cat  70  ARG70       0.5346
     10  NH1       21.0110   63.0250   64.7650 N.pl3  70  ARG70       0.1354
     11  NH2       20.1040   63.7490   62.7830 N.pl3  70  ARG70       0.1354
     12  N         18.0090   68.4210   61.1730 N.3   100  GLY100     -0.1210
     13  CA        18.2740   67.1780   60.4830 C.3   100  GLY100      0.1956
     14  C         17.2430   66.2190   61.0470 C.2   100  GLY100      0.2612
     15  O         16.4840   66.5780   61.9500 O.2   100  GLY100     -0.2717
     16  N         17.1940   65.0060   60.5300 N.am  101  CYS101     -0.1956
     17  CA        16.2280   64.0410   61.0210 C.3   101  CYS101      0.1843
     18  C         16.7200   62.6630   60.6470 C.2   101  CYS101      0.2625
     19  O         17.1540   62.4420   59.5200 O.2   101  CYS101     -0.2714
     20  CB        14.8570   64.2950   60.3950 C.3   101  CYS101      0.0997
     21  SG        13.6210   63.0250   60.7800 S.3   101  CYS101     -0.0797
     22  N         16.6600   61.7310   61.5890 N.am  102  LEU102     -0.1977
     23  CA        17.1230   60.3810   61.3190 C.3   102  LEU102      0.1596
     24  C         16.3470   59.7490   60.1710 C.2   102  LEU102      0.2287
     25  O         16.8290   58.8130   59.5350 O.2   102  LEU102     -0.2864
     26  CB        17.0170   59.5300   62.5840 C.3   102  LEU102      0.0297
     27  CG        17.8350   60.1230   63.7380 C.3   102  LEU102      0.0022
     28  CD1       17.6840   59.2610   64.9790 C.3   102  LEU102      0.0001
     29  CD2       19.2940   60.2320   63.3220 C.3   102  LEU102      0.0001
     30  N         15.4860   61.4630   57.4800 N.3   104  VAL104     -0.1231
     31  CA        15.8610   62.1950   56.2750 C.3   104  VAL104      0.1678
     32  C         17.3870   62.2470   56.3080 C.2   104  VAL104      0.2434
     33  O         17.9870   63.3150   56.4060 O.2   104  VAL104     -0.2733
     34  CB        15.2970   63.6350   56.2840 C.3   104  VAL104      0.0265
     35  CG1       15.6220   64.3410   54.9730 C.3   104  VAL104      0.0020
     36  CG2       13.7990   63.6030   56.4970 C.3   104  VAL104      0.0020
     37  N         18.0320   61.0750   56.2280 N.am  105  PRO105     -0.2718
     38  CA        19.4900   60.9560   56.2590 C.3   105  PRO105      0.1535
     39  C         20.2740   61.7520   55.2250 C.2   105  PRO105      0.2599
     40  O         19.8760   61.8490   54.0640 O.2   105  PRO105     -0.2715
     41  CB        19.7200   59.4510   56.1310 C.3   105  PRO105      0.0310
     42  CG        18.5510   59.0060   55.3170 C.3   105  PRO105      0.0237
     43  CD        17.4090   59.7760   55.9190 C.3   105  PRO105      0.0939
     44  N         21.3860   62.3250   55.6770 N.am  106  GLY106     -0.1941
     45  CA        22.2730   63.0820   54.8160 C.3   106  GLY106      0.2014
     46  C         21.8950   64.5100   54.5000 C.2   106  GLY106      0.2639
     47  O         22.5630   65.1570   53.6960 O.2   106  GLY106     -0.2714
     48  N         20.8510   65.0260   55.1360 N.am  107  MET107     -0.1963
     49  CA        20.4240   66.3850   54.8310 C.3   107  MET107      0.1736
     50  C         20.1920   67.2910   56.0330 C.2   107  MET107      0.2616
     51  O         20.1100   66.8350   57.1710 O.2   107  MET107     -0.2715
     52  CB        19.1520   66.3240   53.9830 C.3   107  MET107      0.0427
     53  CG        19.2620   65.3740   52.7880 C.3   107  MET107      0.0599
     54  SD        17.7670   65.3640   51.7890 S.3   107  MET107     -0.1393
     55  CE        18.0400   66.8400   50.8280 C.3   107  MET107      0.0692
     56  N         20.0980   68.5850   55.7550 N.am  108  ARG108     -0.1977
     57  CA        19.8400   69.5970   56.7690 C.3   108  ARG108      0.1597
     58  C         19.0020   70.6740   56.1080 C.2   108  ARG108      0.2287
     59  O         19.1900   70.9770   54.9290 O.2   108  ARG108     -0.2864
     60  CB        21.1410   70.2170   57.2990 C.3   108  ARG108      0.0334
     61  CG        21.9930   69.2770   58.1250 C.3   108  ARG108      0.0492
     62  CD        21.2280   68.7760   59.3290 C.3   108  ARG108      0.2205
     63  NE        21.7950   67.5390   59.8530 N.pl3 108  ARG108     -0.0865
     64  CZ        22.8820   67.4700   60.6100 C.cat 108  ARG108      0.5346
     65  NH1       23.5250   68.5840   60.9420 N.pl3 108  ARG108      0.1354
     66  NH2       23.3280   66.2890   61.0310 N.pl3 108  ARG108      0.1354
     67  N         24.3720   67.3780   53.6590 N.3   166  ASN166     -0.1240
     68  CA        25.3880   67.6930   54.6630 C.3   166  ASN166      0.1653
     69  C         26.7620   68.0890   54.1630 C.2   166  ASN166      0.2266
     70  O         27.2060   69.2140   54.3830 O.2   166  ASN166     -0.2867
     71  CB        25.5570   66.5100   55.6100 C.3   166  ASN166      0.1155
     72  CG        24.3160   66.2300   56.4080 C.2   166  ASN166      0.2627
     73  OD1       24.2060   65.1910   57.0530 O.2   166  ASN166     -0.2716
     74  ND2       23.3670   67.1590   56.3750 N.am  166  ASN166     -0.0877
@<TRIPOS>BOND
     1    55    54    1
     2    54    53    1
     3    53    52    1
     4    67    68    1
     5    47    46    2
     6    52    49    1
     7    40    39    2
     8    69    70    2
     9    69    68    1
    10    46    45    1
    11    46    48   am
    12    68    71    1
    13    45    44    1
    14    49    48    1
    15    49    50    1
    16    59    58    2
    17    35    34    1
    18    39    44   am
    19    39    38    1
    20    42    43    1
    21    42    41    1
    22    71    72    1
    23    56    50   am
    24    56    57    1
    25    43    37    1
    26    50    51    2
    27    58    57    1
    28    41    38    1
    29    37    38    1
    30    37    32   am
    31    31    34    1
    32    31    32    1
    33    31    30    1
    34    34    36    1
    35    32    33    2
    36    74    72   am
    37    72    73    2
    38    57    60    1
    39    60    61    1
    40    61    62    1
    41    62    63    1
    42    19    18    2
    43    25    24    2
    44    63    64    2
    45    24    23    1
    46    20    21    1
    47    20    17    1
    48    13    14    1
    49    13    12    1
    50    16    17    1
    51    16    14   am
    52    64    65    1
    53    64    66    1
    54    18    17    1
    55    18    22   am
    56    14    15    2
    57    23    22    1
    58    23    26    1
    59    26    27    1
    60    11     9    1
    61     8     7    1
    62     8     9    2
    63    29    27    1
    64     4     3    2
    65     7     6    1
    66     9    10    1
    67     6     5    1
    68    27    28    1
    69     5     2    1
    70     2     3    1
    71     2     1    1
