@<TRIPOS>MOLECULE
tmp/1vf1A00.pdb
 138 135 0 0 0
SMALL
GASTEIGER

@<TRIPOS>ATOM
      1  N         -0.1760   -0.5460   12.8010 N.3     7  TYR7       -0.1227
      2  CA         0.7230   -1.6790   12.6430 C.3     7  TYR7        0.1736
      3  C          0.4300   -2.7050   13.7200 C.2     7  TYR7        0.2595
      4  O         -0.5200   -2.5650   14.4840 O.2     7  TYR7       -0.2718
      5  CB         2.1790   -1.2230   12.7760 C.3     7  TYR7        0.0548
      6  CG         3.1680   -2.1710   12.1350 C.ar    7  TYR7       -0.0200
      7  CD1        3.1520   -2.3870   10.7590 C.ar    7  TYR7       -0.0009
      8  CD2        4.1140   -2.8520   12.9010 C.ar    7  TYR7       -0.0009
      9  CE1        4.0520   -3.2540   10.1560 C.ar    7  TYR7        0.0417
     10  CE2        5.0260   -3.7270   12.3060 C.ar    7  TYR7        0.0417
     11  CZ         4.9880   -3.9200   10.9320 C.ar    7  TYR7        0.1957
     12  OH         5.8910   -4.7620   10.3260 O.3     7  TYR7       -0.2866
     13  N          1.2550   -3.7410   13.7770 N.am    8  PHE8       -0.1976
     14  CA         1.1010   -4.7680   14.7920 C.3     8  PHE8        0.1639
     15  C          1.7400   -4.2580   16.0740 C.2     8  PHE8        0.2290
     16  O          2.5340   -3.3120   16.0520 O.2     8  PHE8       -0.2864
     17  CB         1.7920   -6.0440   14.3340 C.3     8  PHE8        0.0560
     18  CG         1.2790   -6.5520   13.0320 C.ar    8  PHE8       -0.0200
     19  CD1        0.0360   -7.1740   12.9590 C.ar    8  PHE8       -0.0042
     20  CD2        2.0040   -6.3500   11.8620 C.ar    8  PHE8       -0.0042
     21  CE1       -0.4790   -7.5830   11.7340 C.ar    8  PHE8       -0.0003
     22  CE2        1.4980   -6.7540   10.6330 C.ar    8  PHE8       -0.0003
     23  CZ         0.2520   -7.3720   10.5690 C.ar    8  PHE8       -0.0000
     24  N          8.4780   -3.2670   10.6110 N.3    13  LYS13      -0.1245
     25  CA         8.9120   -2.1310    9.8060 C.3    13  LYS13       0.1561
     26  C          8.4900   -0.7910   10.4070 C.2    13  LYS13       0.2260
     27  O          8.9110    0.2730    9.9410 O.2    13  LYS13      -0.2867
     28  CB         8.3270   -2.2460    8.3970 C.3    13  LYS13       0.0271
     29  CG         8.8860   -3.4000    7.5850 C.3    13  LYS13       0.0035
     30  CD         8.2600   -3.4400    6.1980 C.3    13  LYS13       0.0206
     31  CE         9.2960   -3.7930    5.1520 C.3    13  LYS13       0.1093
     32  NZ        10.3480   -2.7360    5.0630 N.3    13  LYS13      -0.1314
     33  N         -8.4120   -6.1330   10.1440 N.3    39  TYR39      -0.1241
     34  CA        -7.6420   -5.8840    8.9300 C.3    39  TYR39       0.1605
     35  C         -8.5680   -5.8030    7.7210 C.2    39  TYR39       0.2264
     36  O         -8.3950   -4.9470    6.8550 O.2    39  TYR39      -0.2867
     37  CB        -6.6040   -6.9940    8.7300 C.3    39  TYR39       0.0534
     38  CG        -5.8060   -6.8930    7.4480 C.ar   39  TYR39      -0.0201
     39  CD1       -5.0420   -5.7590    7.1610 C.ar   39  TYR39      -0.0009
     40  CD2       -5.8120   -7.9350    6.5220 C.ar   39  TYR39      -0.0009
     41  CE1       -4.3030   -5.6660    5.9780 C.ar   39  TYR39       0.0417
     42  CE2       -5.0790   -7.8540    5.3370 C.ar   39  TYR39       0.0417
     43  CZ        -4.3280   -6.7180    5.0710 C.ar   39  TYR39       0.1957
     44  OH        -3.6180   -6.6350    3.8930 O.3    39  TYR39      -0.2866
     45  N         -2.9200   -1.8980    0.2320 N.3    51  GLN51      -0.1231
     46  CA        -3.4290   -2.9780    1.0850 C.3    51  GLN51       0.1698
     47  C         -2.4500   -3.4470    2.1630 C.2    51  GLN51       0.2592
     48  O         -2.6300   -4.5280    2.7330 O.2    51  GLN51      -0.2718
     49  CB        -3.8230   -4.1820    0.2140 C.3    51  GLN51       0.0381
     50  CG        -4.6200   -3.8160   -1.0280 C.3    51  GLN51       0.0905
     51  CD        -4.8830   -5.0100   -1.9320 C.2    51  GLN51       0.2608
     52  OE1       -3.9590   -5.7200   -2.3310 O.2    51  GLN51      -0.2717
     53  NE2       -6.1500   -5.2310   -2.2650 N.am   51  GLN51      -0.0878
     54  N         -1.4320   -2.6390    2.4600 N.am   52  GLN52      -0.1966
     55  CA        -0.4290   -3.0190    3.4540 C.3    52  GLN52       0.1733
     56  C         -0.1960   -1.9680    4.5280 C.2    52  GLN52       0.2616
     57  O         -0.5840   -0.8080    4.3870 O.2    52  GLN52      -0.2715
     58  CB         0.9370   -3.2440    2.7930 C.3    52  GLN52       0.0408
     59  CG         0.9840   -4.1300    1.5610 C.3    52  GLN52       0.0908
     60  CD         2.3650   -4.1090    0.9120 C.2    52  GLN52       0.2608
     61  OE1        2.8500   -3.0530    0.5020 O.2    52  GLN52      -0.2717
     62  NE2        3.0010   -5.2690    0.8210 N.am   52  GLN52      -0.0878
     63  N          0.4500   -2.4040    5.6050 N.am   53  VAL53      -0.1964
     64  CA         0.8640   -1.5180    6.6830 C.3    53  VAL53       0.1712
     65  C          2.3730   -1.7560    6.6450 C.2    53  VAL53       0.2458
     66  O          2.8220   -2.7470    6.0720 O.2    53  VAL53      -0.2730
     67  CB         0.2850   -1.9260    8.0680 C.3    53  VAL53       0.0289
     68  CG1       -1.2160   -1.6500    8.1030 C.3    53  VAL53       0.0023
     69  CG2        0.5650   -3.3880    8.3590 C.3    53  VAL53       0.0023
     70  N          3.1780   -0.8700    7.2420 N.am   54  PRO54      -0.2727
     71  CA         2.8820    0.3620    7.9770 C.3    54  PRO54       0.1402
     72  C          2.0580    1.4070    7.2310 C.2    54  PRO54       0.2269
     73  O          2.1820    1.5800    6.0190 O.2    54  PRO54      -0.2865
     74  CB         4.2710    0.9130    8.3050 C.3    54  PRO54       0.0296
     75  CG         5.1350   -0.2980    8.3320 C.3    54  PRO54       0.0237
     76  CD         4.6350   -1.0700    7.1450 C.3    54  PRO54       0.0939
     77  N          4.0530    2.9290    2.7890 N.3    65  GLN65      -0.1231
     78  CA         5.4140    2.7180    2.2960 C.3    65  GLN65       0.1698
     79  C          6.3390    3.2980    3.3660 C.2    65  GLN65       0.2593
     80  O          6.4590    4.5140    3.5270 O.2    65  GLN65      -0.2718
     81  CB         5.6530    3.3890    0.9390 C.3    65  GLN65       0.0381
     82  CG         4.8790    2.7540   -0.2240 C.3    65  GLN65       0.0905
     83  CD         5.2180    1.2840   -0.4470 C.2    65  GLN65       0.2608
     84  OE1        6.2560    0.7960   -0.0010 O.2    65  GLN65      -0.2717
     85  NE2        4.3470    0.5810   -1.1600 N.am   65  GLN65      -0.0878
     86  N          6.9630    2.3980    4.1160 N.am   66  THR66      -0.1939
     87  CA         7.8550    2.7550    5.2090 C.3    66  THR66       0.2028
     88  C          8.8130    3.9080    4.9100 C.2    66  THR66       0.2642
     89  O          8.8570    4.8800    5.6620 O.2    66  THR66      -0.2714
     90  CB         8.6640    1.5190    5.6670 C.3    66  THR66       0.1808
     91  OG1        7.7510    0.4610    5.9980 O.3    66  THR66      -0.2208
     92  CG2        9.5100    1.8450    6.8980 C.3    66  THR66       0.0379
     93  N          9.5610    3.8220    3.8120 N.am   67  ARG67      -0.1977
     94  CA        10.5200    4.8800    3.4950 C.3    67  ARG67       0.1597
     95  C          9.8580    6.2250    3.2070 C.2    67  ARG67       0.2287
     96  O         10.4030    7.2710    3.5560 O.2    67  ARG67      -0.2864
     97  CB        11.4100    4.4800    2.3120 C.3    67  ARG67       0.0334
     98  CG        12.5880    5.4350    2.0790 C.3    67  ARG67       0.0492
     99  CD        13.5990    5.3750    3.2240 C.3    67  ARG67       0.2205
    100  NE        14.4030    4.1500    3.1930 N.pl3  67  ARG67      -0.0865
    101  CZ        15.5130    3.9980    2.4740 C.cat  67  ARG67       0.5346
    102  NH1       15.9650    4.9970    1.7260 N.pl3  67  ARG67       0.1354
    103  NH2       16.1660    2.8400    2.4880 N.pl3  67  ARG67       0.1354
    104  N          0.7400  -11.7630   13.6250 N.3   214  VAL214     -0.1245
    105  CA         0.9370  -11.3850   12.2280 C.3   214  VAL214      0.1561
    106  C          0.3010  -12.4380   11.3220 C.2   214  VAL214      0.2260
    107  O         -0.4110  -12.1140   10.3690 O.2   214  VAL214     -0.2867
    108  CB         2.4420  -11.2590   11.8860 C.3   214  VAL214      0.0252
    109  CG1        2.6280  -11.0770   10.3810 C.3   214  VAL214      0.0019
    110  CG2        3.0400  -10.0710   12.6310 C.3   214  VAL214      0.0019
    111  N         -2.8070  -11.4400    8.8670 N.3   218  LEU218     -0.1245
    112  CA        -2.5270  -11.4710    7.4370 C.3   218  LEU218      0.1561
    113  C         -2.6540  -12.8290    6.7590 C.2   218  LEU218      0.2260
    114  O         -2.6990  -12.9020    5.5290 O.2   218  LEU218     -0.2867
    115  CB        -1.1230  -10.9130    7.1810 C.3   218  LEU218      0.0270
    116  CG        -0.8340   -9.5110    7.7290 C.3   218  LEU218      0.0019
    117  CD1        0.6140   -9.1410    7.4280 C.3   218  LEU218      0.0001
    118  CD2       -1.7860   -8.4970    7.1050 C.3   218  LEU218      0.0001
    119  N         -0.4810  -15.0370    6.3630 N.3   220  MET220     -0.1230
    120  CA         0.7060  -15.1740    5.5240 C.3   220  MET220      0.1702
    121  C          1.9130  -15.4580    6.3990 C.2   220  MET220      0.2592
    122  O          1.7950  -15.5700    7.6200 O.2   220  MET220     -0.2718
    123  CB         0.9820  -13.8770    4.7650 C.3   220  MET220      0.0401
    124  CG        -0.0950  -13.4310    3.8140 C.3   220  MET220      0.0596
    125  SD         0.2910  -11.7710    3.2260 S.3   220  MET220     -0.1393
    126  CE         1.6800  -12.1010    2.1470 C.3   220  MET220      0.0692
    127  N          3.0760  -15.5530    5.7610 N.am  221  TYR221     -0.1976
    128  CA         4.3360  -15.7930    6.4550 C.3   221  TYR221      0.1639
    129  C          4.2810  -17.0460    7.3260 C.2   221  TYR221      0.2290
    130  O          4.7210  -17.0400    8.4780 O.2   221  TYR221     -0.2864
    131  CB         4.6940  -14.5650    7.3050 C.3   221  TYR221      0.0560
    132  CG         4.5910  -13.2520    6.5480 C.ar  221  TYR221     -0.0198
    133  CD1        5.3700  -13.0110    5.4160 C.ar  221  TYR221     -0.0009
    134  CD2        3.6960  -12.2600    6.9540 C.ar  221  TYR221     -0.0009
    135  CE1        5.2600  -11.8120    4.7030 C.ar  221  TYR221      0.0417
    136  CE2        3.5750  -11.0600    6.2490 C.ar  221  TYR221      0.0417
    137  CZ         4.3580  -10.8410    5.1250 C.ar  221  TYR221      0.1957
    138  OH         4.2280   -9.6620    4.4210 O.3   221  TYR221     -0.2866
@<TRIPOS>BOND
     1    52    51    2
     2    53    51   am
     3    51    50    1
     4    85    83   am
     5    50    49    1
     6    83    82    1
     7    83    84    2
     8    82    81    1
     9    49    46    1
    10    45    46    1
    11    61    60    2
    12    62    60   am
    13    60    59    1
    14    81    78    1
    15    46    47    1
    16    59    58    1
    17   102   101    1
    18    98    97    1
    19    98    99    1
    20   126   125    1
    21    47    54   am
    22    47    48    2
    23    78    77    1
    24    78    79    1
    25    97    94    1
    26    54    55    1
    27   101   103    1
    28   101   100    2
    29    58    55    1
    30   100    99    1
    31    95    94    1
    32    95    96    2
    33   125   124    1
    34    79    80    2
    35    79    86   am
    36    55    56    1
    37    94    93    1
    38    93    88   am
    39   124   123    1
    40    44    43    1
    41    86    87    1
    42    57    56    2
    43   138   137    1
    44    56    63   am
    45   135   137   ar
    46   135   133   ar
    47   123   120    1
    48    88    87    1
    49    88    89    2
    50    32    31    1
    51    43    42   ar
    52    43    41   ar
    53   137   136   ar
    54    31    30    1
    55    87    90    1
    56    42    40   ar
    57   133   132   ar
    58   120   119    1
    59   120   121    1
    60   114   113    2
    61    63    64    1
    62    90    91    1
    63    90    92    1
    64   127   121   am
    65   127   128    1
    66    41    39   ar
    67    73    72    2
    68    66    65    2
    69    30    29    1
    70   136   134   ar
    71   121   122    2
    72   128   131    1
    73   128   129    1
    74    40    38   ar
    75   132   134   ar
    76   132   131    1
    77    65    64    1
    78    65    70   am
    79    64    67    1
    80   113   112    1
    81    36    35    2
    82   118   116    1
    83    76    70    1
    84    76    75    1
    85    39    38   ar
    86   115   112    1
    87   115   116    1
    88    72    71    1
    89    70    71    1
    90   129   130    2
    91   117   116    1
    92   112   111    1
    93    38    37    1
    94    29    28    1
    95    35    34    1
    96    71    74    1
    97    67    68    1
    98    67    69    1
    99    74    75    1
   100    28    25    1
   101    37    34    1
   102    34    33    1
   103    25    26    1
   104    25    24    1
   105    27    26    2
   106     9     7   ar
   107     9    11   ar
   108    12    11    1
   109   107   106    2
   110   109   108    1
   111    23    22   ar
   112    23    21   ar
   113    22    20   ar
   114     7     6   ar
   115    11    10   ar
   116   106   105    1
   117    21    19   ar
   118    20    18   ar
   119   108   105    1
   120   108   110    1
   121     6     5    1
   122     6     8   ar
   123   105   104    1
   124    10     8   ar
   125     2     5    1
   126     2     1    1
   127     2     3    1
   128    19    18   ar
   129    18    17    1
   130     3    13   am
   131     3     4    2
   132    13    14    1
   133    17    14    1
   134    14    15    1
   135    16    15    2
