@<TRIPOS>MOLECULE
tmp/1vf2B00.pdb
 182 177 0 0 0
SMALL
GASTEIGER

@<TRIPOS>ATOM
      1  N         16.5760   32.2700   13.2650 N.3     6  TYR6       -0.1227
      2  CA        16.1220   32.0470   14.6270 C.3     6  TYR6        0.1736
      3  C         15.0810   33.1000   14.9910 C.2     6  TYR6        0.2595
      4  O         14.6030   33.8380   14.1320 O.2     6  TYR6       -0.2718
      5  CB        17.3100   32.1290   15.5940 C.3     6  TYR6        0.0548
      6  CG        17.0690   31.4350   16.9170 C.ar    6  TYR6       -0.0200
      7  CD1       16.8360   30.0570   16.9750 C.ar    6  TYR6       -0.0009
      8  CD2       17.0640   32.1530   18.1090 C.ar    6  TYR6       -0.0009
      9  CE1       16.6030   29.4140   18.1910 C.ar    6  TYR6        0.0417
     10  CE2       16.8320   31.5230   19.3250 C.ar    6  TYR6        0.0417
     11  CZ        16.6010   30.1570   19.3600 C.ar    6  TYR6        0.1957
     12  OH        16.3420   29.5560   20.5640 O.3     6  TYR6       -0.2866
     13  N         14.7290   33.1570   16.2670 N.am    7  PHE7       -0.1976
     14  CA        13.7690   34.1310   16.7540 C.3     7  PHE7        0.1639
     15  C         14.5460   35.3840   17.0990 C.2     7  PHE7        0.2290
     16  O         15.7820   35.3570   17.1500 O.2     7  PHE7       -0.2864
     17  CB        13.0630   33.5840   17.9900 C.3     7  PHE7        0.0560
     18  CG        12.3830   32.2760   17.7470 C.ar    7  PHE7       -0.0200
     19  CD1       11.2430   32.2120   16.9530 C.ar    7  PHE7       -0.0042
     20  CD2       12.9170   31.0950   18.2520 C.ar    7  PHE7       -0.0042
     21  CE1       10.6480   30.9900   16.6630 C.ar    7  PHE7       -0.0003
     22  CE2       12.3290   29.8670   17.9670 C.ar    7  PHE7       -0.0003
     23  CZ        11.1950   29.8150   17.1720 C.ar    7  PHE7       -0.0000
     24  N         19.2730   29.7100   21.8840 N.3    12  LYS12      -0.1245
     25  CA        20.4660   28.9130   21.5860 C.3    12  LYS12       0.1561
     26  C         21.3220   29.5420   20.4910 C.2    12  LYS12       0.2260
     27  O         22.4170   29.0600   20.1970 O.2    12  LYS12      -0.2867
     28  CB        20.0530   27.4960   21.1640 C.3    12  LYS12       0.0271
     29  CG        19.1380   26.7910   22.1560 C.3    12  LYS12       0.0035
     30  CD        18.8180   25.3730   21.7230 C.3    12  LYS12       0.0206
     31  CE        19.8260   24.3870   22.2810 C.3    12  LYS12       0.1093
     32  NZ        21.2160   24.7940   21.9510 N.3    12  LYS12      -0.1314
     33  N          7.4250   29.3040    9.3390 N.3    38  TYR38      -0.1241
     34  CA         8.0670   28.1120    9.8810 C.3    38  TYR38       0.1605
     35  C          7.6550   26.8960    9.0630 C.2    38  TYR38       0.2264
     36  O          8.5090   26.1550    8.5770 O.2    38  TYR38      -0.2867
     37  CB         7.6820   27.8980   11.3470 C.3    38  TYR38       0.0534
     38  CG         8.1790   26.5840   11.9120 C.ar   38  TYR38      -0.0201
     39  CD1        9.5340   26.2410   11.8550 C.ar   38  TYR38      -0.0009
     40  CD2        7.2940   25.6750   12.4870 C.ar   38  TYR38      -0.0009
     41  CE1        9.9940   25.0230   12.3560 C.ar   38  TYR38       0.0417
     42  CE2        7.7410   24.4570   12.9910 C.ar   38  TYR38       0.0417
     43  CZ         9.0920   24.1350   12.9230 C.ar   38  TYR38       0.1957
     44  OH         9.5240   22.9260   13.4250 O.3    38  TYR38      -0.2866
     45  N         13.9980   19.5050   11.2610 N.3    50  GLN50      -0.1231
     46  CA        12.8260   20.3700   11.4630 C.3    50  GLN50       0.1698
     47  C         13.0400   21.3440   12.6130 C.2    50  GLN50       0.2592
     48  O         12.0760   21.8700   13.1660 O.2    50  GLN50      -0.2718
     49  CB        11.5820   19.5190   11.7660 C.3    50  GLN50       0.0381
     50  CG        11.4450   18.2970   10.8800 C.3    50  GLN50       0.0905
     51  CD        10.3610   17.3520   11.3450 C.2    50  GLN50       0.2608
     52  OE1       10.1950   17.1140   12.5410 O.2    50  GLN50      -0.2717
     53  NE2        9.6290   16.7840   10.3970 N.am   50  GLN50      -0.0878
     54  N         14.3020   21.5980   12.9570 N.am   51  GLN51      -0.1966
     55  CA        14.6360   22.4900   14.0730 C.3    51  GLN51       0.1733
     56  C         15.5440   23.6730   13.7480 C.2    51  GLN51       0.2616
     57  O         16.2980   23.6480   12.7820 O.2    51  GLN51      -0.2715
     58  CB        15.3310   21.6900   15.1800 C.3    51  GLN51       0.0408
     59  CG        14.4480   20.8370   16.0460 C.3    51  GLN51       0.0908
     60  CD        15.2440   19.9720   17.0140 C.2    51  GLN51       0.2608
     61  OE1       14.7670   19.6470   18.1000 O.2    51  GLN51      -0.2717
     62  NE2       16.4540   19.5810   16.6170 N.am   51  GLN51      -0.0878
     63  N         15.4510   24.7080   14.5780 N.am   52  VAL52      -0.1964
     64  CA        16.3200   25.8840   14.4850 C.3    52  VAL52       0.1712
     65  C         17.0420   25.8770   15.8460 C.2    52  VAL52       0.2458
     66  O         16.5110   25.3410   16.8240 O.2    52  VAL52      -0.2730
     67  CB        15.5200   27.2190   14.2890 C.3    52  VAL52       0.0289
     68  CG1       14.9690   27.2930   12.8670 C.3    52  VAL52       0.0023
     69  CG2       14.3890   27.3290   15.3080 C.3    52  VAL52       0.0023
     70  N         18.2220   26.5070   15.9530 N.am   53  PRO53      -0.2727
     71  CA        19.0490   27.2280   14.9860 C.3    53  PRO53       0.1402
     72  C         19.3770   26.5560   13.6690 C.2    53  PRO53       0.2269
     73  O         19.5360   25.3350   13.5770 O.2    53  PRO53      -0.2865
     74  CB        20.3330   27.5140   15.7650 C.3    53  PRO53       0.0296
     75  CG        19.9180   27.4970   17.1660 C.3    53  PRO53       0.0237
     76  CD        18.9660   26.3400   17.2150 C.3    53  PRO53       0.0939
     77  N         21.9520   22.1510   14.3380 N.3    64  GLN64      -0.1231
     78  CA        22.6190   21.6080   15.5230 C.3    64  GLN64       0.1698
     79  C         23.6300   22.6400   15.9910 C.2    64  GLN64       0.2593
     80  O         24.7230   22.7820   15.4390 O.2    64  GLN64      -0.2718
     81  CB        23.3060   20.2680   15.2350 C.3    64  GLN64       0.0381
     82  CG        22.3480   19.0980   15.0490 C.3    64  GLN64       0.0905
     83  CD        21.4690   18.8530   16.2760 C.2    64  GLN64       0.2608
     84  OE1       21.8640   19.1300   17.4130 O.2    64  GLN64      -0.2717
     85  NE2       20.2850   18.3090   16.0470 N.am   64  GLN64      -0.0878
     86  N         23.2280   23.3770   17.0180 N.am   65  THR65      -0.1939
     87  CA        24.0300   24.4410   17.5890 C.3    65  THR65       0.2028
     88  C         25.5150   24.1230   17.7390 C.2    65  THR65       0.2642
     89  O         26.3580   24.9010   17.2930 O.2    65  THR65      -0.2714
     90  CB        23.4630   24.8500   18.9500 C.3    65  THR65       0.1808
     91  OG1       22.0760   25.1810   18.7950 O.3    65  THR65      -0.2208
     92  CG2       24.2040   26.0640   19.4880 C.3    65  THR65       0.0379
     93  N         25.8420   22.9900   18.3570 N.am   66  ARG66      -0.1977
     94  CA        27.2410   22.6510   18.5450 C.3    66  ARG66       0.1597
     95  C         27.9840   22.4260   17.2210 C.2    66  ARG66       0.2287
     96  O         29.1660   22.7440   17.1200 O.2    66  ARG66      -0.2864
     97  CB        27.3900   21.4250   19.4500 C.3    66  ARG66       0.0334
     98  CG        28.8560   21.0930   19.7670 C.3    66  ARG66       0.0492
     99  CD        29.5240   22.1980   20.5970 C.3    66  ARG66       0.2205
    100  NE        29.0340   22.2080   21.9780 N.pl3  66  ARG66      -0.0865
    101  CZ        29.5620   21.4920   22.9700 C.cat  66  ARG66       0.5346
    102  NH1       30.6110   20.7100   22.7490 N.pl3  66  ARG66       0.1354
    103  NH2       29.0270   21.5440   24.1830 N.pl3  66  ARG66       0.1354
    104  N         18.3630   28.8160   29.6620 N.3   104  LEU104     -0.1231
    105  CA        17.6490   28.8190   28.3920 C.3   104  LEU104      0.1693
    106  C         16.1300   28.8430   28.5840 C.2   104  LEU104      0.2592
    107  O         15.4060   29.5010   27.8300 O.2   104  LEU104     -0.2718
    108  CB        18.0450   27.5870   27.5780 C.3   104  LEU104      0.0284
    109  CG        17.5490   27.5410   26.1370 C.3   104  LEU104      0.0019
    110  CD1       18.2450   28.6300   25.3230 C.3   104  LEU104      0.0001
    111  CD2       17.8400   26.1650   25.5430 C.3   104  LEU104      0.0001
    112  N         15.6550   28.1290   29.5990 N.am  105  SER105     -0.1952
    113  CA        14.2250   28.0510   29.8780 C.3   105  SER105      0.1924
    114  C         13.7060   29.1520   30.8010 C.2   105  SER105      0.2314
    115  O         12.4950   29.3420   30.9220 O.2   105  SER105     -0.2863
    116  CB        13.8940   26.6940   30.4970 C.3   105  SER105      0.2116
    117  OG        14.4920   26.5770   31.7750 O.3   105  SER105     -0.2180
    118  N         10.6600   31.2170   29.9280 N.3   108  PHE108     -0.1241
    119  CA         9.4020   30.4890   29.8920 C.3   108  PHE108      0.1605
    120  C          8.9200   30.0590   31.2790 C.2   108  PHE108      0.2264
    121  O          7.8130   29.5380   31.4250 O.2   108  PHE108     -0.2867
    122  CB         9.5320   29.2580   28.9840 C.3   108  PHE108      0.0534
    123  CG        10.0020   29.5760   27.5870 C.ar  108  PHE108     -0.0203
    124  CD1       11.3410   29.8680   27.3380 C.ar  108  PHE108     -0.0042
    125  CD2        9.1020   29.6170   26.5270 C.ar  108  PHE108     -0.0042
    126  CE1       11.7730   30.1910   26.0580 C.ar  108  PHE108     -0.0003
    127  CE2        9.5290   29.9420   25.2380 C.ar  108  PHE108     -0.0003
    128  CZ        10.8660   30.2310   25.0050 C.ar  108  PHE108     -0.0000
    129  N          9.2330   37.5730   23.4120 N.3   209  TYR209     -0.1241
    130  CA        10.0380   36.4910   22.8570 C.3   209  TYR209      0.1605
    131  C          9.3420   35.1640   23.1440 C.2   209  TYR209      0.2264
    132  O          9.1420   34.3540   22.2390 O.2   209  TYR209     -0.2867
    133  CB        11.4320   36.5040   23.4910 C.3   209  TYR209      0.0534
    134  CG        12.2770   35.2860   23.1810 C.ar  209  TYR209     -0.0201
    135  CD1       12.9280   35.1420   21.9490 C.ar  209  TYR209     -0.0009
    136  CD2       12.4400   34.2810   24.1330 C.ar  209  TYR209     -0.0009
    137  CE1       13.7270   34.0190   21.6830 C.ar  209  TYR209      0.0417
    138  CE2       13.2260   33.1660   23.8820 C.ar  209  TYR209      0.0417
    139  CZ        13.8690   33.0390   22.6620 C.ar  209  TYR209      0.1957
    140  OH        14.6560   31.9330   22.4530 O.3   209  TYR209     -0.2866
    141  N          7.8200   32.5210   20.2360 N.3   213  VAL213     -0.1245
    142  CA         8.3380   31.1650   20.1460 C.3   213  VAL213      0.1561
    143  C          7.1920   30.1740   20.2890 C.2   213  VAL213      0.2260
    144  O          7.0950   29.2040   19.5310 O.2   213  VAL213     -0.2867
    145  CB         9.4090   30.8980   21.2380 C.3   213  VAL213      0.0252
    146  CG1        9.8310   29.4360   21.2260 C.3   213  VAL213      0.0019
    147  CG2       10.6250   31.7860   20.9910 C.3   213  VAL213      0.0019
    148  N          6.2600   27.6790   17.0540 N.3   217  LEU217     -0.1245
    149  CA         6.5490   26.2690   17.2790 C.3   217  LEU217      0.1561
    150  C          5.4220   25.4990   17.9510 C.2   217  LEU217      0.2260
    151  O          5.3400   24.2800   17.8280 O.2   217  LEU217     -0.2867
    152  CB         7.8270   26.1270   18.1170 C.3   217  LEU217      0.0270
    153  CG         9.1200   26.7250   17.5620 C.3   217  LEU217      0.0019
    154  CD1       10.2450   26.4830   18.5500 C.3   217  LEU217      0.0001
    155  CD2        9.4520   26.1070   16.2100 C.3   217  LEU217      0.0001
    156  N          4.9610   24.9700   21.1680 N.3   219  MET219     -0.1230
    157  CA         5.5600   24.1120   22.1890 C.3   219  MET219      0.1702
    158  C          5.9420   24.9640   23.3820 C.2   219  MET219      0.2592
    159  O          5.6820   26.1650   23.4140 O.2   219  MET219     -0.2718
    160  CB         6.8380   23.4410   21.6760 C.3   219  MET219      0.0401
    161  CG         6.6590   22.3850   20.6110 C.3   219  MET219      0.0596
    162  SD         8.2730   21.7650   20.0520 S.3   219  MET219     -0.1393
    163  CE         8.7890   20.8120   21.4780 C.3   219  MET219      0.0692
    164  N          6.5730   24.3280   24.3590 N.am  220  TYR220     -0.1976
    165  CA         7.0380   25.0200   25.5490 C.3   220  TYR220      0.1639
    166  C          5.9260   25.8350   26.1980 C.2   220  TYR220      0.2290
    167  O          6.1590   26.9350   26.7010 O.2   220  TYR220     -0.2864
    168  CB         8.2130   25.9300   25.1770 C.3   220  TYR220      0.0560
    169  CG         9.1950   25.2710   24.2320 C.ar  220  TYR220     -0.0198
    170  CD1        9.8960   24.1290   24.6100 C.ar  220  TYR220     -0.0009
    171  CD2        9.3920   25.7650   22.9440 C.ar  220  TYR220     -0.0009
    172  CE1       10.7650   23.4900   23.7310 C.ar  220  TYR220      0.0417
    173  CE2       10.2590   25.1370   22.0550 C.ar  220  TYR220      0.0417
    174  CZ        10.9420   23.9960   22.4550 C.ar  220  TYR220      0.1957
    175  OH        11.7900   23.3530   21.5780 O.3   220  TYR220     -0.2866
    176  N          6.7850   24.9150   30.5710 N.3   223  VAL223     -0.1245
    177  CA         8.1750   24.6080   30.8890 C.3   223  VAL223      0.1561
    178  C          8.3960   24.5190   32.3950 C.2   223  VAL223      0.2260
    179  O          8.1710   25.4850   33.1250 O.2   223  VAL223     -0.2867
    180  CB         9.1210   25.6840   30.3120 C.3   223  VAL223      0.0252
    181  CG1       10.5680   25.3030   30.5720 C.3   223  VAL223      0.0019
    182  CG2        8.8670   25.8520   28.8250 C.3   223  VAL223      0.0019
@<TRIPOS>BOND
     1    36    35    2
     2    35    34    1
     3    33    34    1
     4    34    37    1
     5    53    51   am
     6    50    51    1
     7    50    49    1
     8    45    46    1
     9    51    52    2
    10    37    38    1
    11    46    49    1
    12    46    47    1
    13    39    38   ar
    14    39    41   ar
    15    38    40   ar
    16    41    43   ar
    17    40    42   ar
    18    47    54   am
    19    47    48    2
    20    57    56    2
    21    68    67    1
    22    43    42   ar
    23    43    44    1
    24    54    55    1
    25     1     2    1
    26    73    72    2
    27    72    71    1
    28    56    55    1
    29    56    63   am
    30    55    58    1
    31     4     3    2
    32    67    64    1
    33    67    69    1
    34    77    78    1
    35    64    63    1
    36    64    65    1
    37     2     3    1
    38     2     5    1
    39    71    74    1
    40    71    70    1
    41     3    13   am
    42    82    81    1
    43    82    83    1
    44    58    59    1
    45    81    78    1
    46    80    79    2
    47    78    79    1
    48     5     6    1
    49    74    75    1
    50    65    70   am
    51    65    66    2
    52    70    76    1
    53    79    86   am
    54    59    60    1
    55    85    83   am
    56   155   153    1
    57    13    14    1
    58    83    84    2
    59    62    60   am
    60    21    19   ar
    61    21    23   ar
    62    14    15    1
    63    14    17    1
    64     6     7   ar
    65     6     8   ar
    66    19    18   ar
    67     7     9   ar
    68    60    61    2
    69    86    87    1
    70   148   149    1
    71    15    16    2
    72    96    95    2
    73    75    76    1
    74    23    22   ar
    75    95    94    1
    76   149   150    1
    77   149   152    1
    78    89    88    2
    79   153   152    1
    80   153   154    1
    81    87    88    1
    82    87    90    1
    83    88    93   am
    84    18    17    1
    85    18    20   ar
    86   151   150    2
    87    22    20   ar
    88     8    10   ar
    89     9    11   ar
    90    93    94    1
    91    94    97    1
    92    91    90    1
    93    90    92    1
    94    10    11   ar
    95    11    12    1
    96    97    98    1
    97   144   143    2
    98    98    99    1
    99   162   161    1
   100   162   163    1
   101   142   141    1
   102   142   143    1
   103   142   145    1
   104    27    26    2
   105    26    25    1
   106    99   100    1
   107   161   160    1
   108   147   145    1
   109    28    25    1
   110    28    29    1
   111   156   157    1
   112   146   145    1
   113   175   174    1
   114    25    24    1
   115   160   157    1
   116   137   135   ar
   117   137   139   ar
   118    30    29    1
   119    30    31    1
   120   135   134   ar
   121    32    31    1
   122   100   101    2
   123   173   174   ar
   124   173   171   ar
   125   157   158    1
   126   132   131    2
   127   140   139    1
   128   174   172   ar
   129   139   138   ar
   130   102   101    1
   131   130   131    1
   132   130   129    1
   133   130   133    1
   134   171   169   ar
   135   101   103    1
   136   134   133    1
   137   134   136   ar
   138   158   159    2
   139   158   164   am
   140   172   170   ar
   141   138   136   ar
   142   169   170   ar
   143   169   168    1
   144   164   165    1
   145   128   127   ar
   146   128   126   ar
   147   168   165    1
   148   127   125   ar
   149   110   109    1
   150   111   109    1
   151   165   166    1
   152   126   124   ar
   153   109   108    1
   154   166   167    2
   155   125   123   ar
   156   124   123   ar
   157   108   105    1
   158   123   122    1
   159   107   106    2
   160   105   106    1
   161   105   104    1
   162   106   112   am
   163   182   180    1
   164   122   119    1
   165   112   113    1
   166   113   116    1
   167   113   114    1
   168   119   118    1
   169   119   120    1
   170   180   181    1
   171   180   177    1
   172   116   117    1
   173   176   177    1
   174   114   115    2
   175   177   178    1
   176   120   121    2
   177   178   179    2
