@<TRIPOS>MOLECULE
tmp/1vf5I00.pdb
 91 88 0 0 0
SMALL
GASTEIGER

@<TRIPOS>ATOM
      1  N         65.5620   18.3310  112.7560 N.3   104  LEU104     -0.1245
      2  CA        65.7780   17.4330  111.6420 C.3   104  LEU104      0.1561
      3  C         67.0930   16.6780  111.8610 C.2   104  LEU104      0.2260
      4  O         67.2230   15.5210  111.4770 O.2   104  LEU104     -0.2867
      5  CB        65.7880   18.2080  110.3230 C.3   104  LEU104      0.0270
      6  CG        65.9800   19.7240  110.4280 C.3   104  LEU104      0.0019
      7  CD1       67.1640   20.1460  111.3290 C.3   104  LEU104      0.0001
      8  CD2       66.1680   20.2110  109.0080 C.3   104  LEU104      0.0001
      9  N         59.9010  -11.2530  103.4640 N.3   156  LEU156     -0.1245
     10  CA        60.8900  -10.5100  102.7030 C.3   156  LEU156      0.1561
     11  C         62.2430  -10.4530  103.4150 C.2   156  LEU156      0.2260
     12  O         63.2780  -10.4540  102.7680 O.2   156  LEU156     -0.2867
     13  CB        60.3750   -9.0860  102.4140 C.3   156  LEU156      0.0270
     14  CG        59.1880   -8.8810  101.4500 C.3   156  LEU156      0.0019
     15  CD1       58.7170   -7.4370  101.5200 C.3   156  LEU156      0.0001
     16  CD2       59.5940   -9.2530  100.0200 C.3   156  LEU156      0.0001
     17  N         75.9940   -4.5050  102.0190 N.3   177  PHE177     -0.1241
     18  CA        75.6570   -3.6420  100.8850 C.3   177  PHE177      0.1605
     19  C         74.6400   -2.5760  101.2570 C.2   177  PHE177      0.2264
     20  O         74.9170   -1.3890  101.2140 O.2   177  PHE177     -0.2867
     21  CB        75.0960   -4.4360   99.7190 C.3   177  PHE177      0.0534
     22  CG        74.8750   -3.6020   98.4930 C.ar  177  PHE177     -0.0203
     23  CD1       75.8880   -3.4390   97.5510 C.ar  177  PHE177     -0.0042
     24  CD2       73.6720   -2.9400   98.2970 C.ar  177  PHE177     -0.0042
     25  CE1       75.7010   -2.6250   96.4310 C.ar  177  PHE177     -0.0003
     26  CE2       73.4780   -2.1310   97.1860 C.ar  177  PHE177     -0.0003
     27  CZ        74.4940   -1.9730   96.2500 C.ar  177  PHE177     -0.0000
     28  N         75.2680    1.6320  102.9430 N.3   181  TRP181     -0.1227
     29  CA        74.9110    2.7470  102.0760 C.3   181  TRP181      0.1737
     30  C         73.9090    3.6640  102.7220 C.2   181  TRP181      0.2595
     31  O         73.8760    4.8480  102.4360 O.2   181  TRP181     -0.2718
     32  CB        74.3740    2.2400  100.7370 C.3   181  TRP181      0.0564
     33  CG        75.3890    2.3580   99.6750 C.ar  181  TRP181      0.0003
     34  CD1       75.8690    3.5150   99.1240 C.ar  181  TRP181      0.0946
     35  CD2       76.1760    1.3110   99.1420 C.ar  181  TRP181      0.0152
     36  NE1       76.9230    3.2480   98.2830 N.ar  181  TRP181     -0.2442
     37  CE2       77.1320    1.8970   98.2780 C.ar  181  TRP181      0.0810
     38  CE3       76.1820   -0.0710   99.3140 C.ar  181  TRP181      0.0012
     39  CZ2       78.0830    1.1440   97.5930 C.ar  181  TRP181      0.0191
     40  CZ3       77.1370   -0.8270   98.6330 C.ar  181  TRP181      0.0001
     41  CH2       78.0750   -0.2180   97.7840 C.ar  181  TRP181      0.0015
     42  N         73.0950    3.1220  103.6060 N.am  182  LEU182     -0.1980
     43  CA        72.1050    3.9320  104.2720 C.3   182  LEU182      0.1596
     44  C         72.7220    4.7820  105.3410 C.2   182  LEU182      0.2287
     45  O         72.4450    5.9660  105.4240 O.2   182  LEU182     -0.2864
     46  CB        71.0300    3.0560  104.8820 C.3   182  LEU182      0.0297
     47  CG        70.2590    2.3230  103.7950 C.3   182  LEU182      0.0022
     48  CD1       69.2510    1.4070  104.4270 C.3   182  LEU182      0.0001
     49  CD2       69.5800    3.3300  102.8860 C.3   182  LEU182      0.0001
     50  N         74.3990    7.6400  103.9440 N.3   185  VAL185     -0.1231
     51  CA        73.4930    8.6710  103.4520 C.3   185  VAL185      0.1692
     52  C         72.9620    9.5020  104.6030 C.2   185  VAL185      0.2592
     53  O         72.8470   10.7080  104.4850 O.2   185  VAL185     -0.2718
     54  CB        72.2810    8.0780  102.7060 C.3   185  VAL185      0.0266
     55  CG1       71.2870    9.1770  102.3870 C.3   185  VAL185      0.0020
     56  CG2       72.7240    7.3990  101.4310 C.3   185  VAL185      0.0020
     57  N         72.6330    8.8640  105.7170 N.am  186  PHE186     -0.1976
     58  CA        72.1190    9.6050  106.8350 C.3   186  PHE186      0.1639
     59  C         73.1520   10.2310  107.7010 C.2   186  PHE186      0.2290
     60  O         72.8380   11.1570  108.4270 O.2   186  PHE186     -0.2864
     61  CB        71.1940    8.7540  107.6450 C.3   186  PHE186      0.0560
     62  CG        69.9000    8.5460  106.9750 C.ar  186  PHE186     -0.0200
     63  CD1       69.7760    7.5980  105.9860 C.ar  186  PHE186     -0.0042
     64  CD2       68.8140    9.3700  107.2630 C.ar  186  PHE186     -0.0042
     65  CE1       68.5930    7.4700  105.2840 C.ar  186  PHE186     -0.0003
     66  CE2       67.6270    9.2550  106.5710 C.ar  186  PHE186     -0.0003
     67  CZ        67.5130    8.3060  105.5800 C.ar  186  PHE186     -0.0000
     68  N         73.6350   13.4100  105.7980 N.3   189  LEU189     -0.1245
     69  CA        72.6880   14.4900  106.0680 C.3   189  LEU189      0.1561
     70  C         72.9650   15.0290  107.4580 C.2   189  LEU189      0.2260
     71  O         73.1510   16.2260  107.6480 O.2   189  LEU189     -0.2867
     72  CB        71.2570   13.9860  106.0460 C.3   189  LEU189      0.0270
     73  CG        70.8160   13.1760  104.8420 C.3   189  LEU189      0.0019
     74  CD1       69.3340   12.8630  104.9890 C.3   189  LEU189      0.0001
     75  CD2       71.0960   13.9470  103.5700 C.3   189  LEU189      0.0001
     76  N         75.9140   17.2940  107.4240 N.3   192  LEU192     -0.1231
     77  CA        75.6970   18.5030  106.6420 C.3   192  LEU192      0.1693
     78  C         74.7400   19.4580  107.3540 C.2   192  LEU192      0.2591
     79  O         74.9780   20.6670  107.3940 O.2   192  LEU192     -0.2718
     80  CB        75.1510   18.1540  105.2590 C.3   192  LEU192      0.0284
     81  CG        76.0400   17.2260  104.4220 C.3   192  LEU192      0.0019
     82  CD1       75.4030   17.0530  103.0610 C.3   192  LEU192      0.0001
     83  CD2       77.4610   17.7870  104.2780 C.3   192  LEU192      0.0001
     84  N         73.6610   18.9230  107.9190 N.am  193  MET193     -0.1979
     85  CA        72.7050   19.7500  108.6410 C.3   193  MET193      0.1605
     86  C         73.3650   20.3300  109.8650 C.2   193  MET193      0.2287
     87  O         72.6860   20.7620  110.7910 O.2   193  MET193     -0.2864
     88  CB        71.5010   18.9440  109.0840 C.3   193  MET193      0.0413
     89  CG        70.6300   18.4970  107.9570 C.3   193  MET193      0.0598
     90  SD        69.2240   17.6240  108.5970 S.3   193  MET193     -0.1393
     91  CE        70.0280   16.1320  109.2060 C.3   193  MET193      0.0692
@<TRIPOS>BOND
     1    27    25   ar
     2    27    26   ar
     3    25    23   ar
     4    26    24   ar
     5    23    22   ar
     6    39    41   ar
     7    39    37   ar
     8    41    40   ar
     9    37    36   ar
    10    37    35   ar
    11    36    34   ar
    12    24    22   ar
    13    22    21    1
    14    40    38   ar
    15    34    33   ar
    16    35    38   ar
    17    35    33   ar
    18    33    32    1
    19    21    18    1
    20    16    14    1
    21    32    29    1
    22    18    19    1
    23    18    17    1
    24    20    19    2
    25    56    54    1
    26    14    15    1
    27    14    13    1
    28    29    30    1
    29    29    28    1
    30    55    54    1
    31    13    10    1
    32    31    30    2
    33    10    11    1
    34    10     9    1
    35    54    51    1
    36    30    42   am
    37    12    11    2
    38    49    47    1
    39    82    81    1
    40    51    50    1
    41    51    52    1
    42    75    73    1
    43    42    43    1
    44    47    48    1
    45    47    46    1
    46    43    46    1
    47    43    44    1
    48    83    81    1
    49    81    80    1
    50    53    52    2
    51    52    57   am
    52    73    74    1
    53    73    72    1
    54    80    77    1
    55    65    67   ar
    56    65    63   ar
    57    44    45    2
    58    67    66   ar
    59    57    58    1
    60    68    69    1
    61    63    62   ar
    62    72    69    1
    63    69    70    1
    64    66    64   ar
    65    77    78    1
    66    77    76    1
    67    58    61    1
    68    58    59    1
    69    62    64   ar
    70    62    61    1
    71    78    79    2
    72    78    84   am
    73    70    71    2
    74    59    60    2
    75    84    85    1
    76    89    90    1
    77    89    88    1
    78    90    91    1
    79    85    88    1
    80    85    86    1
    81     8     6    1
    82    86    87    2
    83     5     6    1
    84     5     2    1
    85     6     7    1
    86     4     3    2
    87     2     3    1
    88     2     1    1
