@<TRIPOS>MOLECULE
tmp/1vf5A03.pdb
 123 114 0 0 0
SMALL
GASTEIGER

@<TRIPOS>ATOM
      1  N         89.0240    3.3250   84.7040 N.3   114  VAL114     -0.1231
      2  CA        89.6920    2.1270   85.1870 C.3   114  VAL114      0.1692
      3  C         88.8060    1.4200   86.1990 C.2   114  VAL114      0.2591
      4  O         88.8000    0.1980   86.2810 O.2   114  VAL114     -0.2718
      5  CB        91.0350    2.4470   85.8430 C.3   114  VAL114      0.0266
      6  CG1       91.7190    1.1580   86.2820 C.3   114  VAL114      0.0020
      7  CG2       91.9130    3.1890   84.8610 C.3   114  VAL114      0.0020
      8  N         88.0530    2.1950   86.9730 N.am  115  ILE115     -0.1980
      9  CA        87.1530    1.6150   87.9640 C.3   115  ILE115      0.1595
     10  C         86.0350    0.8980   87.2320 C.2   115  ILE115      0.2287
     11  O         85.6480   -0.2090   87.5970 O.2   115  ILE115     -0.2864
     12  CB        86.5060    2.6920   88.8640 C.3   115  ILE115      0.0276
     13  CG1       87.5750    3.3870   89.7020 C.3   115  ILE115      0.0022
     14  CG2       85.4690    2.0590   89.7810 C.3   115  ILE115      0.0022
     15  CD1       87.0280    4.4680   90.6140 C.3   115  ILE115      0.0001
     16  N         86.0220   -0.3330   84.0780 N.3   117  VAL117     -0.1231
     17  CA        86.4350   -1.5550   83.3860 C.3   117  VAL117      0.1692
     18  C         86.5790   -2.6500   84.4270 C.2   117  VAL117      0.2592
     19  O         86.1480   -3.7770   84.2180 O.2   117  VAL117     -0.2718
     20  CB        87.7780   -1.3870   82.6040 C.3   117  VAL117      0.0266
     21  CG1       88.3520   -2.7550   82.2250 C.3   117  VAL117      0.0020
     22  CG2       87.5400   -0.5720   81.3420 C.3   117  VAL117      0.0020
     23  N         87.1710   -2.3090   85.5630 N.am  118  SER118     -0.1952
     24  CA        87.3500   -3.2760   86.6360 C.3   118  SER118      0.1924
     25  C         86.0180   -3.9470   87.0090 C.2   118  SER118      0.2314
     26  O         85.9670   -5.1550   87.2310 O.2   118  SER118     -0.2863
     27  CB        87.9560   -2.5760   87.8470 C.3   118  SER118      0.2116
     28  OG        89.1930   -1.9920   87.5010 O.3   118  SER118     -0.2180
     29  N         85.1280   -6.6200   84.5330 N.3   121  VAL121     -0.1231
     30  CA        86.1060   -7.7050   84.6560 C.3   121  VAL121      0.1692
     31  C         85.8620   -8.6700   85.8190 C.2   121  VAL121      0.2592
     32  O         86.0370   -9.8860   85.6850 O.2   121  VAL121     -0.2718
     33  CB        87.5420   -7.1320   84.7750 C.3   121  VAL121      0.0266
     34  CG1       88.5000   -8.2160   85.2410 C.3   121  VAL121      0.0020
     35  CG2       87.9940   -6.5660   83.4220 C.3   121  VAL121      0.0020
     36  N         85.4770   -8.1310   86.9660 N.am  122  THR122     -0.1953
     37  CA        85.2090   -8.9650   88.1220 C.3   122  THR122      0.1897
     38  C         83.8330   -9.6020   87.9850 C.2   122  THR122      0.2313
     39  O         83.6710  -10.7880   88.2560 O.2   122  THR122     -0.2863
     40  CB        85.2520   -8.1430   89.4170 C.3   122  THR122      0.1794
     41  OG1       84.5940   -6.8930   89.2060 O.3   122  THR122     -0.2208
     42  CG2       86.6670   -7.8730   89.8280 C.3   122  THR122      0.0378
     43  N         92.9630  -16.4960   82.8280 N.3   138  ILE138     -0.1231
     44  CA        93.8890  -15.8590   81.9000 C.3   138  ILE138      0.1692
     45  C         94.4220  -14.4730   82.3090 C.2   138  ILE138      0.2591
     46  O         95.5770  -14.1550   82.0340 O.2   138  ILE138     -0.2718
     47  CB        93.2200  -15.7990   80.4810 C.3   138  ILE138      0.0266
     48  CG1       94.0750  -16.5630   79.4660 C.3   138  ILE138      0.0019
     49  CG2       92.9870  -14.3600   80.0470 C.3   138  ILE138      0.0020
     50  CD1       93.4860  -16.5940   78.0580 C.3   138  ILE138      0.0001
     51  N         93.5920  -13.6570   82.9570 N.am  139  VAL139     -0.1980
     52  CA        94.0120  -12.3120   83.3680 C.3   139  VAL139      0.1595
     53  C         94.7190  -12.2920   84.7190 C.2   139  VAL139      0.2287
     54  O         95.2660  -11.2660   85.1230 O.2   139  VAL139     -0.2864
     55  CB        92.8110  -11.2970   83.4450 C.3   139  VAL139      0.0276
     56  CG1       92.1160  -11.1800   82.1030 C.3   139  VAL139      0.0022
     57  CG2       91.8290  -11.7210   84.4940 C.3   139  VAL139      0.0022
     58  N         98.6170  -12.0300   84.1620 N.3   142  VAL142     -0.1245
     59  CA        99.0100  -10.8110   83.4710 C.3   142  VAL142      0.1561
     60  C         99.9440   -9.9310   84.2770 C.2   142  VAL142      0.2260
     61  O        100.9350   -9.4300   83.7540 O.2   142  VAL142     -0.2867
     62  CB        97.7790   -9.9930   83.0690 C.3   142  VAL142      0.0252
     63  CG1       98.1930   -8.5990   82.6650 C.3   142  VAL142      0.0019
     64  CG2       97.0560  -10.6900   81.9240 C.3   142  VAL142      0.0019
     65  N         95.2180  -10.5130   94.1590 N.3   157  LEU157     -0.1245
     66  CA        93.9600  -10.4400   93.4060 C.3   157  LEU157      0.1561
     67  C         93.2240  -11.7750   93.2500 C.2   157  LEU157      0.2260
     68  O         91.9900  -11.8080   93.2080 O.2   157  LEU157     -0.2867
     69  CB        94.2130   -9.8620   92.0120 C.3   157  LEU157      0.0270
     70  CG        94.8660   -8.4860   91.8000 C.3   157  LEU157      0.0019
     71  CD1       95.0810   -8.2770   90.3170 C.3   157  LEU157      0.0001
     72  CD2       94.0110   -7.3740   92.3330 C.3   157  LEU157      0.0001
     73  N         87.1800  -12.8150   96.6300 N.3   170  ARG170     -0.1231
     74  CA        87.7970  -11.5050   96.5090 C.3   170  ARG170      0.1694
     75  C         87.1890  -10.7600   95.3530 C.2   170  ARG170      0.2592
     76  O         87.0040   -9.5560   95.4140 O.2   170  ARG170     -0.2718
     77  CB        89.2970  -11.6520   96.3060 C.3   170  ARG170      0.0321
     78  CG        89.9510  -12.3880   97.4610 C.3   170  ARG170      0.0489
     79  CD        91.4170  -12.0750   97.6030 C.3   170  ARG170      0.2205
     80  NE        91.9190  -12.6210   98.8530 N.pl3 170  ARG170     -0.0865
     81  CZ        93.0510  -12.2430   99.4310 C.cat 170  ARG170      0.5346
     82  NH1       93.8060  -11.3180   98.8700 N.pl3 170  ARG170      0.1354
     83  NH2       93.4160  -12.7710  100.5850 N.pl3 170  ARG170      0.1354
     84  N         86.8750  -11.4770   94.2870 N.am  171  TYR171     -0.1976
     85  CA        86.2570  -10.8480   93.1320 C.3   171  TYR171      0.1639
     86  C         84.8610  -10.3120   93.4380 C.2   171  TYR171      0.2290
     87  O         84.4400   -9.3160   92.8640 O.2   171  TYR171     -0.2864
     88  CB        86.1740  -11.8370   91.9840 C.3   171  TYR171      0.0560
     89  CG        87.2850  -11.6820   90.9880 C.ar  171  TYR171     -0.0198
     90  CD1       88.6170  -11.8160   91.3750 C.ar  171  TYR171     -0.0009
     91  CD2       87.0040  -11.4310   89.6410 C.ar  171  TYR171     -0.0009
     92  CE1       89.6470  -11.7090   90.4450 C.ar  171  TYR171      0.0417
     93  CE2       88.0240  -11.3250   88.7000 C.ar  171  TYR171      0.0417
     94  CZ        89.3420  -11.4660   89.1100 C.ar  171  TYR171      0.1957
     95  OH        90.3520  -11.3760   88.1840 O.3   171  TYR171     -0.2866
     96  N         85.2190   -7.2350   95.7170 N.3   174  ALA174     -0.1245
     97  CA        85.6540   -6.1640   94.8470 C.3   174  ALA174      0.1562
     98  C         84.5100   -5.6130   94.0030 C.2   174  ALA174      0.2260
     99  O         84.3750   -4.4070   93.8420 O.2   174  ALA174     -0.2867
    100  CB        86.7910   -6.6710   93.9430 C.3   174  ALA174      0.0290
    101  N         84.0300   -3.0270   97.2860 N.3   178  VAL178     -0.1231
    102  CA        85.0920   -2.1100   96.9230 C.3   178  VAL178      0.1692
    103  C         84.7630   -1.1830   95.7590 C.2   178  VAL178      0.2591
    104  O         84.4580   -0.0170   95.9730 O.2   178  VAL178     -0.2718
    105  CB        86.3780   -2.8820   96.6190 C.3   178  VAL178      0.0266
    106  CG1       87.4560   -1.9470   96.1610 C.3   178  VAL178      0.0020
    107  CG2       86.8250   -3.5990   97.8590 C.3   178  VAL178      0.0020
    108  N         84.8160   -1.6940   94.5340 N.am  179  LEU179     -0.1980
    109  CA        84.5600   -0.8820   93.3490 C.3   179  LEU179      0.1596
    110  C         83.3840    0.0790   93.4220 C.2   179  LEU179      0.2287
    111  O         83.4680    1.2230   92.9560 O.2   179  LEU179     -0.2864
    112  CB        84.4220   -1.7900   92.1380 C.3   179  LEU179      0.0297
    113  CG        85.7680   -2.3750   91.7190 C.3   179  LEU179      0.0022
    114  CD1       85.5470   -3.4620   90.7010 C.3   179  LEU179      0.0001
    115  CD2       86.6640   -1.2680   91.1580 C.3   179  LEU179      0.0001
    116  N         84.3940    3.1440   95.3290 N.3   182  LEU182     -0.1245
    117  CA        85.3880    3.9540   94.6670 C.3   182  LEU182      0.1561
    118  C         84.7640    4.8150   93.6070 C.2   182  LEU182      0.2260
    119  O         85.0210    6.0100   93.5430 O.2   182  LEU182     -0.2867
    120  CB        86.4390    3.0650   94.0390 C.3   182  LEU182      0.0270
    121  CG        87.2140    2.3300   95.1140 C.3   182  LEU182      0.0019
    122  CD1       88.2240    1.4170   94.4760 C.3   182  LEU182      0.0001
    123  CD2       87.8990    3.3430   96.0100 C.3   182  LEU182      0.0001
@<TRIPOS>BOND
     1    50    48    1
     2    48    47    1
     3    49    47    1
     4    47    44    1
     5    22    20    1
     6    44    45    1
     7    44    43    1
     8    64    62    1
     9    46    45    2
    10    56    55    1
    11    21    20    1
    12    45    51   am
    13    20    17    1
    14    63    62    1
    15    51    52    1
    16    62    59    1
    17    52    55    1
    18    52    53    1
    19    17    16    1
    20    17    18    1
    21    35    33    1
    22    55    57    1
    23    59    58    1
    24    59    60    1
    25    61    60    2
    26    19    18    2
    27    18    23   am
    28    29    30    1
    29    30    33    1
    30    30    31    1
    31     1     2    1
    32    53    54    2
    33    33    34    1
    34     7     5    1
    35     2     5    1
    36     2     3    1
    37    23    24    1
    38    32    31    2
    39    31    36   am
    40     5     6    1
    41     3     4    2
    42     3     8   am
    43    24    25    1
    44    24    27    1
    45    36    37    1
    46     8     9    1
    47    25    26    2
    48    10    11    2
    49    10     9    1
    50    28    27    1
    51     9    12    1
    52    38    37    1
    53    38    39    2
    54    37    40    1
    55    95    94    1
    56    93    94   ar
    57    93    91   ar
    58    12    13    1
    59    12    14    1
    60    94    92   ar
    61    41    40    1
    62    40    42    1
    63    91    89   ar
    64    13    15    1
    65    71    70    1
    66    92    90   ar
    67   114   113    1
    68    89    90   ar
    69    89    88    1
    70   115   113    1
    71   113   112    1
    72    70    69    1
    73    70    72    1
    74    88    85    1
    75    69    66    1
    76   112   109    1
    77    87    86    2
    78   111   110    2
    79    85    86    1
    80    85    84    1
    81    68    67    2
    82    67    66    1
    83   109   110    1
    84   109   108    1
    85    66    65    1
    86   119   118    2
    87   118   117    1
    88    99    98    2
    89   100    97    1
    90    98    97    1
    91   120   117    1
    92   120   121    1
    93    84    75   am
    94   122   121    1
    95   108   103   am
    96   117   116    1
    97    97    96    1
    98   121   123    1
    99    75    76    2
   100    75    74    1
   101   103   104    2
   102   103   102    1
   103   106   105    1
   104    77    74    1
   105    77    78    1
   106    74    73    1
   107   105   102    1
   108   105   107    1
   109   102   101    1
   110    78    79    1
   111    79    80    1
   112    80    81    2
   113    82    81    1
   114    81    83    1
