@<TRIPOS>MOLECULE
tmp/1vf5A08.pdb
 98 93 0 0 0
SMALL
GASTEIGER

@<TRIPOS>ATOM
      1  N        103.1820  -10.5720   93.7960 N.3   152  LEU152     -0.1245
      2  CA       102.5080  -10.2530   95.0410 C.3   152  LEU152      0.1561
      3  C        101.1580   -9.6980   94.5660 C.2   152  LEU152      0.2260
      4  O        100.1070  -10.0360   95.1070 O.2   152  LEU152     -0.2867
      5  CB       103.2760   -9.1710   95.7970 C.3   152  LEU152      0.0270
      6  CG       103.1800   -9.1330   97.3270 C.3   152  LEU152      0.0019
      7  CD1      103.4120   -7.7030   97.7780 C.3   152  LEU152      0.0001
      8  CD2      101.8170   -9.5930   97.8180 C.3   152  LEU152      0.0001
      9  N         97.5950  -11.3320   95.4110 N.3   156  LEU156     -0.1245
     10  CA        96.6060  -10.5990   96.1860 C.3   156  LEU156      0.1561
     11  C         95.2360  -10.5530   95.4930 C.2   156  LEU156      0.2260
     12  O         94.2070  -10.5800   96.1670 O.2   156  LEU156     -0.2867
     13  CB        97.1110   -9.1720   96.4880 C.3   156  LEU156      0.0270
     14  CG        98.2920   -8.9530   97.4550 C.3   156  LEU156      0.0019
     15  CD1       98.7480   -7.4970   97.3970 C.3   156  LEU156      0.0001
     16  CD2       97.8930   -9.3290   98.8750 C.3   156  LEU156      0.0001
     17  N         87.1800  -12.8150   96.6300 N.3   170  ARG170     -0.1245
     18  CA        87.7970  -11.5050   96.5090 C.3   170  ARG170      0.1563
     19  C         87.1890  -10.7600   95.3530 C.2   170  ARG170      0.2260
     20  O         87.0040   -9.5560   95.4140 O.2   170  ARG170     -0.2867
     21  CB        89.2970  -11.6520   96.3060 C.3   170  ARG170      0.0307
     22  CG        89.9510  -12.3880   97.4610 C.3   170  ARG170      0.0489
     23  CD        91.4170  -12.0750   97.6030 C.3   170  ARG170      0.2205
     24  NE        91.9190  -12.6210   98.8530 N.pl3 170  ARG170     -0.0865
     25  CZ        93.0510  -12.2430   99.4310 C.cat 170  ARG170      0.5346
     26  NH1       93.8060  -11.3180   98.8700 N.pl3 170  ARG170      0.1354
     27  NH2       93.4160  -12.7710  100.5850 N.pl3 170  ARG170      0.1354
     28  N         81.4760   -4.4940   96.8880 N.3   177  PHE177     -0.1227
     29  CA        81.8070   -3.6430   98.0240 C.3   177  PHE177      0.1736
     30  C         82.8320   -2.5820   97.6360 C.2   177  PHE177      0.2595
     31  O         82.5480   -1.3880   97.6470 O.2   177  PHE177     -0.2718
     32  CB        82.3640   -4.4510   99.2010 C.3   177  PHE177      0.0547
     33  CG        82.6010   -3.6180  100.4480 C.ar  177  PHE177     -0.0202
     34  CD1       81.5940   -3.4340  101.3850 C.ar  177  PHE177     -0.0042
     35  CD2       83.8200   -2.9950  100.6670 C.ar  177  PHE177     -0.0042
     36  CE1       81.8050   -2.6470  102.5120 C.ar  177  PHE177     -0.0003
     37  CE2       84.0270   -2.2130  101.7880 C.ar  177  PHE177     -0.0003
     38  CZ        83.0210   -2.0410  102.7070 C.ar  177  PHE177     -0.0000
     39  N         84.0300   -3.0270   97.2860 N.am  178  VAL178     -0.1980
     40  CA        85.0920   -2.1100   96.9230 C.3   178  VAL178      0.1595
     41  C         84.7630   -1.1830   95.7590 C.2   178  VAL178      0.2287
     42  O         84.4580   -0.0170   95.9730 O.2   178  VAL178     -0.2864
     43  CB        86.3780   -2.8820   96.6190 C.3   178  VAL178      0.0276
     44  CG1       87.4560   -1.9470   96.1610 C.3   178  VAL178      0.0022
     45  CG2       86.8250   -3.5990   97.8590 C.3   178  VAL178      0.0022
     46  N         82.2230    1.6160   95.9900 N.3   181  TRP181     -0.1227
     47  CA        82.5750    2.7330   96.8660 C.3   181  TRP181      0.1737
     48  C         83.5850    3.6740   96.2320 C.2   181  TRP181      0.2595
     49  O         83.6290    4.8550   96.5460 O.2   181  TRP181     -0.2718
     50  CB        83.1170    2.2170   98.1950 C.3   181  TRP181      0.0564
     51  CG        82.1040    2.3290   99.2530 C.ar  181  TRP181      0.0003
     52  CD1       81.6520    3.4800   99.8320 C.ar  181  TRP181      0.0946
     53  CD2       81.3070    1.2760   99.7810 C.ar  181  TRP181      0.0152
     54  NE1       80.6080    3.2100  100.6850 N.ar  181  TRP181     -0.2442
     55  CE2       80.3760    1.8610  100.6720 C.ar  181  TRP181      0.0810
     56  CE3       81.2770   -0.1050   99.5840 C.ar  181  TRP181      0.0012
     57  CZ2       79.4260    1.1050  101.3650 C.ar  181  TRP181      0.0191
     58  CZ3       80.3290   -0.8600  100.2700 C.ar  181  TRP181      0.0001
     59  CH2       79.4150   -0.2530  101.1510 C.ar  181  TRP181      0.0015
     60  N         84.3940    3.1440   95.3290 N.am  182  LEU182     -0.1980
     61  CA        85.3880    3.9540   94.6670 C.3   182  LEU182      0.1596
     62  C         84.7640    4.8150   93.6070 C.2   182  LEU182      0.2287
     63  O         85.0210    6.0100   93.5430 O.2   182  LEU182     -0.2864
     64  CB        86.4390    3.0650   94.0390 C.3   182  LEU182      0.0297
     65  CG        87.2140    2.3300   95.1140 C.3   182  LEU182      0.0022
     66  CD1       88.2240    1.4170   94.4760 C.3   182  LEU182      0.0001
     67  CD2       87.8990    3.3430   96.0100 C.3   182  LEU182      0.0001
     68  N         83.1290    7.6060   94.9990 N.3   185  VAL185     -0.1245
     69  CA        84.0300    8.6260   95.4920 C.3   185  VAL185      0.1561
     70  C         84.5100    9.4740   94.3460 C.2   185  VAL185      0.2260
     71  O         84.5450   10.6910   94.4450 O.2   185  VAL185     -0.2867
     72  CB        85.2550    8.0180   96.1860 C.3   185  VAL185      0.0252
     73  CG1       86.2690    9.0930   96.4550 C.3   185  VAL185      0.0019
     74  CG2       84.8460    7.3500   97.4980 C.3   185  VAL185      0.0019
     75  N         81.9780   11.3770   92.6770 N.3   188  LEU188     -0.1231
     76  CA        81.7280   12.4510   93.6040 C.3   188  LEU188      0.1693
     77  C         82.6390   13.6280   93.3320 C.2   188  LEU188      0.2591
     78  O         82.1760   14.7590   93.2910 O.2   188  LEU188     -0.2718
     79  CB        81.9310   11.9610   95.0270 C.3   188  LEU188      0.0284
     80  CG        80.8610   12.4560   95.9880 C.3   188  LEU188      0.0019
     81  CD1       81.0170   13.9470   96.2390 C.3   188  LEU188      0.0001
     82  CD2       79.4930   12.1160   95.3860 C.3   188  LEU188      0.0001
     83  N         83.9340   13.3720   93.1550 N.am  189  LEU189     -0.1980
     84  CA        84.8740   14.4580   92.8780 C.3   189  LEU189      0.1596
     85  C         84.5610   15.0160   91.5040 C.2   189  LEU189      0.2287
     86  O         84.2960   16.1990   91.3440 O.2   189  LEU189     -0.2864
     87  CB        86.3130   13.9550   92.8750 C.3   189  LEU189      0.0297
     88  CG        86.7960   13.1450   94.0660 C.3   189  LEU189      0.0022
     89  CD1       88.2860   12.9060   93.9240 C.3   189  LEU189      0.0001
     90  CD2       86.4800   13.8800   95.3490 C.3   189  LEU189      0.0001
     91  N         81.6300   17.2890   91.5510 N.3   192  LEU192     -0.1245
     92  CA        81.8310   18.5060   92.3310 C.3   192  LEU192      0.1561
     93  C         82.7750   19.4660   91.6220 C.2   192  LEU192      0.2260
     94  O         82.5410   20.6740   91.6040 O.2   192  LEU192     -0.2867
     95  CB        82.3750   18.1690   93.7160 C.3   192  LEU192      0.0270
     96  CG        81.4890   17.2620   94.5790 C.3   192  LEU192      0.0019
     97  CD1       82.1370   17.0950   95.9370 C.3   192  LEU192      0.0001
     98  CD2       80.0780   17.8450   94.7380 C.3   192  LEU192      0.0001
@<TRIPOS>BOND
     1    86    85    2
     2    85    84    1
     3    91    92    1
     4    94    93    2
     5    93    92    1
     6    92    95    1
     7    75    76    1
     8    87    84    1
     9    87    88    1
    10    84    83    1
    11    83    77   am
    12    78    77    2
    13    77    76    1
    14    63    62    2
    15    76    79    1
    16    62    61    1
    17    95    96    1
    18     1     2    1
    19    89    88    1
    20    64    61    1
    21    64    65    1
    22    88    90    1
    23    70    71    2
    24    70    69    1
    25    66    65    1
    26     3     2    1
    27     3     4    2
    28    96    98    1
    29    96    97    1
    30    61    60    1
    31    68    69    1
    32    79    80    1
    33     2     5    1
    34    65    67    1
    35    60    48   am
    36    19    20    2
    37    19    18    1
    38    82    80    1
    39     9    10    1
    40    69    72    1
    41    11    12    2
    42    11    10    1
    43    41    42    2
    44    41    40    1
    45     5     6    1
    46    80    81    1
    47    46    47    1
    48    44    43    1
    49    10    13    1
    50    72    73    1
    51    72    74    1
    52    48    49    2
    53    48    47    1
    54    21    18    1
    55    21    22    1
    56    13    14    1
    57    18    17    1
    58    43    40    1
    59    43    45    1
    60    47    50    1
    61    28    29    1
    62    40    39    1
    63    39    30   am
    64     6     7    1
    65     6     8    1
    66    15    14    1
    67    14    16    1
    68    22    23    1
    69    23    24    1
    70    30    31    2
    71    30    29    1
    72    29    32    1
    73    50    51    1
    74    24    25    2
    75    26    25    1
    76    32    33    1
    77    51    53   ar
    78    51    52   ar
    79    25    27    1
    80    56    53   ar
    81    56    58   ar
    82    53    55   ar
    83    52    54   ar
    84    58    59   ar
    85    33    35   ar
    86    33    34   ar
    87    35    37   ar
    88    55    54   ar
    89    55    57   ar
    90    59    57   ar
    91    34    36   ar
    92    37    38   ar
    93    36    38   ar
