@<TRIPOS>MOLECULE
tmp/1vf5A05.pdb
 97 94 0 0 0
SMALL
GASTEIGER

@<TRIPOS>ATOM
      1  N         76.2570    7.7610   83.4840 N.3    29  LEU29      -0.1245
      2  CA        75.8930    7.7690   84.8910 C.3    29  LEU29       0.1561
      3  C         74.6510    6.9440   85.1160 C.2    29  LEU29       0.2260
      4  O         74.5920    6.1460   86.0490 O.2    29  LEU29      -0.2867
      5  CB        75.6190    9.1860   85.3750 C.3    29  LEU29       0.0270
      6  CG        74.8620    9.1890   86.7040 C.3    29  LEU29       0.0019
      7  CD1       75.6740    8.4670   87.7590 C.3    29  LEU29       0.0001
      8  CD2       74.5770   10.6100   87.1260 C.3    29  LEU29       0.0001
      9  N         74.9240    3.4760   85.1100 N.3    32  PHE32      -0.1227
     10  CA        75.4870    3.0520   86.3680 C.3    32  PHE32       0.1736
     11  C         74.3950    2.8850   87.3960 C.2    32  PHE32       0.2595
     12  O         74.3280    1.8720   88.0800 O.2    32  PHE32      -0.2718
     13  CB        76.4660    4.0600   86.9290 C.3    32  PHE32       0.0547
     14  CG        76.9080    3.7080   88.3100 C.ar   32  PHE32      -0.0202
     15  CD1       77.6840    2.5830   88.5200 C.ar   32  PHE32      -0.0042
     16  CD2       76.4890    4.4440   89.4090 C.ar   32  PHE32      -0.0042
     17  CE1       78.0400    2.1850   89.7900 C.ar   32  PHE32      -0.0003
     18  CE2       76.8400    4.0550   90.6940 C.ar   32  PHE32      -0.0003
     19  CZ        77.6170    2.9210   90.8840 C.ar   32  PHE32      -0.0000
     20  N         73.5640    3.9100   87.5270 N.am   33  LEU33      -0.1980
     21  CA        72.4740    3.8760   88.4880 C.3    33  LEU33       0.1596
     22  C         71.6470    2.6170   88.2510 C.2    33  LEU33       0.2287
     23  O         71.1620    1.9970   89.1890 O.2    33  LEU33      -0.2864
     24  CB        71.6110    5.1430   88.3570 C.3    33  LEU33       0.0297
     25  CG        72.2430    6.4580   88.8500 C.3    33  LEU33       0.0022
     26  CD1       71.3270    7.6370   88.6050 C.3    33  LEU33       0.0001
     27  CD2       72.5470    6.3380   90.3290 C.3    33  LEU33       0.0001
     28  N         73.6190   -0.3520   89.7650 N.3    36  PHE36      -0.1227
     29  CA        73.5890   -0.3510   91.2190 C.3    36  PHE36       0.1736
     30  C         72.3200   -1.0190   91.7190 C.2    36  PHE36       0.2595
     31  O         72.3330   -1.8110   92.6630 O.2    36  PHE36      -0.2718
     32  CB        73.6340    1.0870   91.7190 C.3    36  PHE36       0.0547
     33  CG        73.6570    1.2100   93.2020 C.ar   36  PHE36      -0.0202
     34  CD1       74.8330    1.5430   93.8650 C.ar   36  PHE36      -0.0042
     35  CD2       72.4960    1.0270   93.9370 C.ar   36  PHE36      -0.0042
     36  CE1       74.8540    1.7010   95.2370 C.ar   36  PHE36      -0.0003
     37  CE2       72.5040    1.1810   95.3160 C.ar   36  PHE36      -0.0003
     38  CZ        73.6860    1.5210   95.9680 C.ar   36  PHE36      -0.0000
     39  N         71.2180   -0.6720   91.0760 N.am   37  ALA37      -0.1980
     40  CA        69.9330   -1.2180   91.4450 C.3    37  ALA37       0.1597
     41  C         69.8610   -2.6940   91.1140 C.2    37  ALA37       0.2287
     42  O         69.7550   -3.5040   92.0180 O.2    37  ALA37      -0.2864
     43  CB        68.8290   -0.4680   90.7380 C.3    37  ALA37       0.0319
     44  N         72.4890   -4.7480   93.0040 N.3    40  PHE40      -0.1241
     45  CA        72.0640   -4.9580   94.3710 C.3    40  PHE40       0.1605
     46  C         71.0030   -6.0830   94.3930 C.2    40  PHE40       0.2264
     47  O         71.1580   -7.0820   95.0880 O.2    40  PHE40      -0.2867
     48  CB        71.4890   -3.6510   94.9190 C.3    40  PHE40       0.0534
     49  CG        70.5190   -3.8400   96.0470 C.ar   40  PHE40      -0.0203
     50  CD1       70.8720   -4.5900   97.1690 C.ar   40  PHE40      -0.0042
     51  CD2       69.2420   -3.2810   95.9860 C.ar   40  PHE40      -0.0042
     52  CE1       69.9660   -4.7830   98.2150 C.ar   40  PHE40      -0.0003
     53  CE2       68.3260   -3.4670   97.0250 C.ar   40  PHE40      -0.0003
     54  CZ        68.6890   -4.2200   98.1430 C.ar   40  PHE40      -0.0000
     55  N         70.6130  -10.6330   96.5390 N.3    44  PHE44      -0.1241
     56  CA        69.6000  -11.3020   97.3310 C.3    44  PHE44       0.1605
     57  C         69.4460  -12.7440   96.9040 C.2    44  PHE44       0.2264
     58  O         68.8510  -13.5490   97.6180 O.2    44  PHE44      -0.2867
     59  CB        68.2760  -10.5640   97.2180 C.3    44  PHE44       0.0534
     60  CG        68.1220   -9.5000   98.2300 C.ar   44  PHE44      -0.0203
     61  CD1       69.1620   -8.6280   98.4890 C.ar   44  PHE44      -0.0042
     62  CD2       66.9630   -9.3880   98.9650 C.ar   44  PHE44      -0.0042
     63  CE1       69.0480   -7.6500   99.4850 C.ar   44  PHE44      -0.0003
     64  CE2       66.8350   -8.4140   99.9640 C.ar   44  PHE44      -0.0003
     65  CZ        67.8810   -7.5450  100.2250 C.ar   44  PHE44      -0.0000
     66  N         81.8780    5.8030   93.4610 N.3   184  ALA184     -0.1245
     67  CA        81.0460    6.7710   94.1480 C.3   184  ALA184      0.1562
     68  C         81.8940    7.9120   94.6390 C.2   184  ALA184      0.2260
     69  O         81.4450    9.0430   94.6980 O.2   184  ALA184     -0.2867
     70  CB        80.3320    6.1170   95.3150 C.3   184  ALA184      0.0290
     71  N         83.0900    9.6760   91.3100 N.3   187  MET187     -0.1230
     72  CA        82.0450   10.3020   90.5430 C.3   187  MET187      0.1702
     73  C         81.7400   11.5230   91.3880 C.2   187  MET187      0.2592
     74  O         81.3250   12.5660   90.9060 O.2   187  MET187     -0.2718
     75  CB        80.8240    9.4190   90.4740 C.3   187  MET187      0.0401
     76  CG        81.0440    8.1780   89.6900 C.3   187  MET187      0.0596
     77  SD        79.4880    7.3440   89.5210 S.3   187  MET187     -0.1393
     78  CE        79.2700    7.4010   87.8190 C.3   187  MET187      0.0692
     79  N         81.9780   11.3770   92.6770 N.am  188  LEU188     -0.1980
     80  CA        81.7280   12.4510   93.6040 C.3   188  LEU188      0.1596
     81  C         82.6390   13.6280   93.3320 C.2   188  LEU188      0.2287
     82  O         82.1760   14.7590   93.2910 O.2   188  LEU188     -0.2864
     83  CB        81.9310   11.9610   95.0270 C.3   188  LEU188      0.0297
     84  CG        80.8610   12.4560   95.9880 C.3   188  LEU188      0.0022
     85  CD1       81.0170   13.9470   96.2390 C.3   188  LEU188      0.0001
     86  CD2       79.4930   12.1160   95.3860 C.3   188  LEU188      0.0001
     87  N         82.0530   15.1720   89.7160 N.3   191  PHE191     -0.1241
     88  CA        80.8470   15.9960   89.6390 C.3   191  PHE191      0.1605
     89  C         81.0090   17.3230   90.3760 C.2   191  PHE191      0.2264
     90  O         80.5710   18.3610   89.8910 O.2   191  PHE191     -0.2867
     91  CB        79.6270   15.2500   90.2150 C.3   191  PHE191      0.0534
     92  CG        79.2220   14.0190   89.4330 C.ar  191  PHE191     -0.0203
     93  CD1       79.5010   13.9050   88.0720 C.ar  191  PHE191     -0.0042
     94  CD2       78.5130   12.9900   90.0550 C.ar  191  PHE191     -0.0042
     95  CE1       79.0800   12.7890   87.3460 C.ar  191  PHE191     -0.0003
     96  CE2       78.0860   11.8620   89.3290 C.ar  191  PHE191     -0.0003
     97  CZ        78.3710   11.7660   87.9740 C.ar  191  PHE191     -0.0000
@<TRIPOS>BOND
     1     1     2    1
     2     2     3    1
     3     2     5    1
     4     9    10    1
     5     3     4    2
     6     5     6    1
     7    10    13    1
     8    10    11    1
     9     6     8    1
    10     6     7    1
    11    13    14    1
    12    95    97   ar
    13    95    93   ar
    14    11    20   am
    15    11    12    2
    16    20    21    1
    17    78    77    1
    18    97    96   ar
    19    93    92   ar
    20    22    21    1
    21    22    23    2
    22    14    15   ar
    23    14    16   ar
    24    24    21    1
    25    24    25    1
    26    15    17   ar
    27    26    25    1
    28    25    27    1
    29    96    94   ar
    30    16    18   ar
    31    92    94   ar
    32    92    91    1
    33    77    76    1
    34    88    87    1
    35    88    91    1
    36    88    89    1
    37    76    75    1
    38    28    29    1
    39    17    19   ar
    40    90    89    2
    41    75    72    1
    42    72    71    1
    43    72    73    1
    44    18    19   ar
    45    43    40    1
    46    74    73    2
    47    39    40    1
    48    39    30   am
    49    41    40    1
    50    41    42    2
    51    29    30    1
    52    29    32    1
    53    73    79   am
    54    30    31    2
    55    32    33    1
    56    79    80    1
    57    44    45    1
    58    33    34   ar
    59    33    35   ar
    60    82    81    2
    61    81    80    1
    62    66    67    1
    63    80    83    1
    64    34    36   ar
    65    35    37   ar
    66    67    68    1
    67    67    70    1
    68    45    46    1
    69    45    48    1
    70    46    47    2
    71    68    69    2
    72    48    49    1
    73    83    84    1
    74    36    38   ar
    75    37    38   ar
    76    86    84    1
    77    51    49   ar
    78    51    53   ar
    79    84    85    1
    80    49    50   ar
    81    55    56    1
    82    57    56    1
    83    57    58    2
    84    53    54   ar
    85    50    52   ar
    86    59    56    1
    87    59    60    1
    88    54    52   ar
    89    60    61   ar
    90    60    62   ar
    91    61    63   ar
    92    62    64   ar
    93    63    65   ar
    94    64    65   ar
