@<TRIPOS>MOLECULE
tmp/1vfgC00.pdb
 205 189 0 0 0
SMALL
GASTEIGER

@<TRIPOS>ATOM
      1  N         12.4370   -4.1110    8.7170 N.3    16  VAL16      -0.1245
      2  CA        13.6260   -3.6980    9.4290 C.3    16  VAL16       0.1561
      3  C         14.9410   -4.4400    9.2430 C.2    16  VAL16       0.2260
      4  O         14.9970   -5.6200    8.8900 O.2    16  VAL16      -0.2867
      5  CB        13.2900   -3.6560   10.9330 C.3    16  VAL16       0.0252
      6  CG1       13.6150   -5.0040   11.5670 C.3    16  VAL16       0.0019
      7  CG2       13.9730   -2.4750   11.6030 C.3    16  VAL16       0.0019
      8  N         18.0270   -6.4370    8.8450 N.3    18  GLY18      -0.1210
      9  CA        18.4630   -7.5150    7.9760 C.3    18  GLY18       0.1956
     10  C         18.0330   -7.3900    6.5370 C.2    18  GLY18       0.2611
     11  O         18.8510   -7.1460    5.6500 O.2    18  GLY18      -0.2717
     12  N         16.7360   -7.5400    6.3080 N.am   19  VAL19      -0.1979
     13  CA        16.1790   -7.4650    4.9710 C.3    19  VAL19       0.1595
     14  C         16.4000   -6.1350    4.2620 C.2    19  VAL19       0.2287
     15  O         16.6680   -6.1420    3.0790 O.2    19  VAL19      -0.2864
     16  CB        14.6680   -7.7750    4.9780 C.3    19  VAL19       0.0276
     17  CG1       13.9230   -6.6500    5.6700 C.3    19  VAL19       0.0022
     18  CG2       14.1560   -7.9410    3.5630 C.3    19  VAL19       0.0022
     19  N         18.8890   -4.1750    4.4530 N.3    21  ARG21      -0.1231
     20  CA        20.2620   -4.1860    3.9770 C.3    21  ARG21       0.1694
     21  C         20.3370   -4.8330    2.5900 C.2    21  ARG21       0.2592
     22  O         20.6840   -4.1810    1.5950 O.2    21  ARG21      -0.2718
     23  CB        21.1590   -4.9730    4.9280 C.3    21  ARG21       0.0321
     24  CG        22.5960   -4.8890    4.5130 C.3    21  ARG21       0.0489
     25  CD        23.4530   -5.8030    5.2980 C.3    21  ARG21       0.2205
     26  NE        23.0620   -7.1860    5.1070 N.pl3  21  ARG21      -0.0865
     27  CZ        22.3520   -7.8790    5.9870 C.cat  21  ARG21       0.5346
     28  NH1       21.9530   -7.3120    7.1180 N.pl3  21  ARG21       0.1354
     29  NH2       22.0610   -9.1510    5.7470 N.pl3  21  ARG21       0.1354
     30  N         20.0040   -6.1200    2.5360 N.am   22  ASP22      -0.1974
     31  CA        20.0460   -6.8690    1.2920 C.3    22  ASP22       0.1709
     32  C         19.3180   -6.1390    0.1740 C.2    22  ASP22       0.2293
     33  O         19.7550   -6.1250   -0.9690 O.2    22  ASP22      -0.2864
     34  CB        19.4330   -8.2590    1.4780 C.3    22  ASP22       0.1436
     35  CG        20.1730   -9.1070    2.5100 C.2    22  ASP22       0.3671
     36  OD1       21.2670   -8.6710    2.9740 O.co2  22  ASP22      -0.2456
     37  OD2       19.6620  -10.2170    2.8420 O.co2  22  ASP22      -0.2456
     38  N         19.3300   -7.5730   -3.3080 N.3    27  LYS27      -0.1245
     39  CA        19.2970   -9.0290   -3.1390 C.3    27  LYS27       0.1561
     40  C         17.8850   -9.4660   -2.7120 C.2    27  LYS27       0.2260
     41  O         17.3660   -8.9970   -1.6880 O.2    27  LYS27      -0.2867
     42  CB        20.3140   -9.4430   -2.0840 C.3    27  LYS27       0.0271
     43  CG        20.4280  -10.9200   -1.8180 C.3    27  LYS27       0.0035
     44  CD        21.4220  -11.1270   -0.6650 C.3    27  LYS27       0.0206
     45  CE        21.4940  -12.5750   -0.1910 C.3    27  LYS27       0.1093
     46  NZ        22.1940  -12.7080    1.1200 N.3    27  LYS27      -0.1314
     47  N         14.8890  -11.3840   -1.0890 N.3    29  VAL29      -0.1245
     48  CA        14.7740  -12.0820    0.1840 C.3    29  VAL29       0.1561
     49  C         13.3770  -12.5150    0.4210 C.2    29  VAL29       0.2260
     50  O         12.4350  -11.7970    0.0780 O.2    29  VAL29      -0.2867
     51  CB        15.1620  -11.2000    1.3470 C.3    29  VAL29       0.0252
     52  CG1       16.6690  -11.2850    1.5670 C.3    29  VAL29       0.0019
     53  CG2       14.7200   -9.7630    1.0440 C.3    29  VAL29       0.0019
     54  N         12.6460  -13.7680    3.5790 N.3    31  ASP31      -0.1239
     55  CA        12.3940  -13.6610    4.9990 C.3    31  ASP31       0.1674
     56  C         12.3220  -12.1850    5.2530 C.2    31  ASP31       0.2266
     57  O         13.2970  -11.4760    5.0340 O.2    31  ASP31      -0.2867
     58  CB        13.5240  -14.2790    5.8130 C.3    31  ASP31       0.1410
     59  CG        13.0290  -14.9110    7.1330 C.2    31  ASP31       0.3668
     60  OD1       13.8460  -15.5110    7.8740 O.co2  31  ASP31      -0.2456
     61  OD2       11.8220  -14.8160    7.4390 O.co2  31  ASP31      -0.2456
     62  N         11.3340   -9.0270    7.9990 N.3    33  ASP33      -0.1239
     63  CA        11.1260   -8.6900    9.3980 C.3    33  ASP33       0.1674
     64  C         10.3940   -7.3500    9.5640 C.2    33  ASP33       0.2266
     65  O         10.7000   -6.3820    8.8700 O.2    33  ASP33      -0.2867
     66  CB        12.4830   -8.6430   10.1300 C.3    33  ASP33       0.1410
     67  CG        13.3670   -9.8910    9.8650 C.2    33  ASP33       0.3668
     68  OD1       12.8350  -10.9310    9.4100 O.co2  33  ASP33      -0.2456
     69  OD2       14.5990   -9.8260   10.1260 O.co2  33  ASP33      -0.2456
     70  N         15.5350   -4.9770   23.4970 N.3    81  GLU81      -0.1245
     71  CA        16.3260   -6.2340   23.5920 C.3    81  GLU81       0.1567
     72  C         15.9460   -7.4770   24.4230 C.2    81  GLU81       0.2260
     73  O         16.7340   -8.4280   24.4490 O.2    81  GLU81      -0.2867
     74  CB        17.8020   -5.9030   23.9150 C.3    81  GLU81       0.0388
     75  CG        18.7910   -5.9810   22.7150 C.3    81  GLU81       0.1160
     76  CD        19.1220   -7.4130   22.2650 C.2    81  GLU81       0.3649
     77  OE1       19.8750   -7.5860   21.2720 O.co2  81  GLU81      -0.2457
     78  OE2       18.6320   -8.3620   22.9060 O.co2  81  GLU81      -0.2457
     79  N         19.2130   -0.6760   19.3380 N.3    94  ARG94      -0.1231
     80  CA        19.7310   -1.8390   20.0270 C.3    94  ARG94       0.1694
     81  C         20.1340   -2.8690   18.9890 C.2    94  ARG94       0.2592
     82  O         20.1280   -4.0640   19.2970 O.2    94  ARG94      -0.2718
     83  CB        18.6320   -2.4470   20.8730 C.3    94  ARG94       0.0321
     84  CG        17.3010   -2.3210   20.1410 C.3    94  ARG94       0.0489
     85  CD        16.3050   -3.4830   20.2880 C.3    94  ARG94       0.2205
     86  NE        16.6570   -4.7030   19.5400 N.pl3  94  ARG94      -0.0865
     87  CZ        15.7680   -5.5950   19.0740 C.cat  94  ARG94       0.5346
     88  NH1       14.4650   -5.4050   19.2660 N.pl3  94  ARG94       0.1354
     89  NH2       16.1740   -6.6960   18.4250 N.pl3  94  ARG94       0.1354
     90  N         20.4650   -2.4180   17.7710 N.am   95  ARG95      -0.1966
     91  CA        20.8350   -3.3060   16.6530 C.3    95  ARG95       0.1729
     92  C         22.3190   -3.6240   16.4710 C.2    95  ARG95       0.2616
     93  O         23.1990   -3.1510   17.1920 O.2    95  ARG95      -0.2715
     94  CB        20.3230   -2.7220   15.3340 C.3    95  ARG95       0.0348
     95  CG        18.8320   -2.7450   15.1770 C.3    95  ARG95       0.0492
     96  CD        18.3930   -4.0690   14.6330 C.3    95  ARG95       0.2205
     97  NE        16.9810   -4.2930   14.9030 N.pl3  95  ARG95      -0.0865
     98  CZ        16.3570   -5.4270   14.6200 C.cat  95  ARG95       0.5346
     99  NH1       17.0330   -6.4160   14.0530 N.pl3  95  ARG95       0.1354
    100  NH2       15.0750   -5.5880   14.9310 N.pl3  95  ARG95       0.1354
    101  N         22.5770   -4.4320   15.4600 N.am   96  ASP96      -0.1971
    102  CA        23.9150   -4.8240   15.1050 C.3    96  ASP96       0.1709
    103  C         24.8250   -3.6660   14.7920 C.2    96  ASP96       0.2293
    104  O         25.3760   -3.0210   15.6910 O.2    96  ASP96      -0.2864
    105  CB        23.8550   -5.7020   13.8920 C.3    96  ASP96       0.1436
    106  CG        24.5150   -6.9700   14.1520 C.2    96  ASP96       0.3671
    107  OD1       25.0600   -7.0380   15.2760 O.co2  96  ASP96      -0.2456
    108  OD2       24.5040   -7.8730   13.2850 O.co2  96  ASP96      -0.2456
    109  N         22.7060   -2.5260    9.4400 N.3   100  ASN100     -0.1240
    110  CA        21.6570   -3.4420    9.8960 C.3   100  ASN100      0.1653
    111  C         20.6460   -2.7410   10.8060 C.2   100  ASN100      0.2266
    112  O         19.7520   -3.3930   11.3750 O.2   100  ASN100     -0.2867
    113  CB        22.3010   -4.6210   10.6310 C.3   100  ASN100      0.1155
    114  CG        23.4110   -5.2690    9.8030 C.2   100  ASN100      0.2627
    115  OD1       23.1440   -5.9300    8.7830 O.2   100  ASN100     -0.2716
    116  ND2       24.6720   -5.0540   10.2210 N.am  100  ASN100     -0.0877
    117  N         27.1030   -8.0100   23.5210 N.3   140  ASP140     -0.1239
    118  CA        26.8950   -9.3050   22.8850 C.3   140  ASP140      0.1674
    119  C         28.1520   -9.7090   22.1220 C.2   140  ASP140      0.2266
    120  O         28.3070   -9.3720   20.9440 O.2   140  ASP140     -0.2867
    121  CB        25.7080   -9.2480   21.9160 C.3   140  ASP140      0.1410
    122  CG        25.2630  -10.6400   21.4550 C.2   140  ASP140      0.3668
    123  OD1       26.0670  -11.5940   21.5950 O.co2 140  ASP140     -0.2456
    124  OD2       24.1180  -10.7700   20.9580 O.co2 140  ASP140     -0.2456
    125  N         28.9160  -12.0780   20.4800 N.3   142  VAL142     -0.1231
    126  CA        28.7380  -12.9100   19.3000 C.3   142  VAL142      0.1692
    127  C         28.9080  -12.0150   18.0860 C.2   142  VAL142      0.2591
    128  O         29.3740  -12.4510   17.0270 O.2   142  VAL142     -0.2718
    129  CB        27.3400  -13.5290   19.2280 C.3   142  VAL142      0.0266
    130  CG1       26.2890  -12.4390   19.0950 C.3   142  VAL142      0.0020
    131  CG2       27.2580  -14.4450   18.0280 C.3   142  VAL142      0.0020
    132  N         28.5140  -10.7550   18.2600 N.am  143  ARG143     -0.1980
    133  CA        28.6010   -9.7600   17.2050 C.3   143  ARG143      0.1597
    134  C         30.0060   -9.7210   16.6190 C.2   143  ARG143      0.2287
    135  O         30.2070   -9.2590   15.4920 O.2   143  ARG143     -0.2864
    136  CB        28.1800   -8.3860   17.7440 C.3   143  ARG143      0.0334
    137  CG        26.6590   -8.2590   17.9280 C.3   143  ARG143      0.0492
    138  CD        26.1820   -6.9300   18.5330 C.3   143  ARG143      0.2205
    139  NE        24.7210   -6.9160   18.7110 N.pl3 143  ARG143     -0.0865
    140  CZ        24.0480   -6.0840   19.5110 C.cat 143  ARG143      0.5346
    141  NH1       24.6900   -5.1700   20.2320 N.pl3 143  ARG143      0.1354
    142  NH2       22.7240   -6.1720   19.5980 N.pl3 143  ARG143      0.1354
    143  N         29.8290  -11.9610   13.9750 N.3   146  ARG146     -0.1245
    144  CA        28.9080  -11.3460   13.0320 C.3   146  ARG146      0.1563
    145  C         29.7140  -10.3110   12.2410 C.2   146  ARG146      0.2260
    146  O         29.7840  -10.3500   11.0090 O.2   146  ARG146     -0.2867
    147  CB        27.7340  -10.6580   13.7710 C.3   146  ARG146      0.0307
    148  CG        26.7920  -11.5330   14.6780 C.3   146  ARG146      0.0489
    149  CD        25.4280  -11.9900   14.0320 C.3   146  ARG146      0.2205
    150  NE        24.4450  -10.9220   13.7490 N.pl3 146  ARG146     -0.0865
    151  CZ        23.3300  -11.0800   13.0080 C.cat 146  ARG146      0.5346
    152  NH1       23.0240  -12.2630   12.4660 N.pl3 146  ARG146      0.1354
    153  NH2       22.5250  -10.0440   12.7620 N.pl3 146  ARG146      0.1354
    154  N         31.7170  -11.8420    9.7840 N.3   149  ARG149     -0.1231
    155  CA        30.9040  -12.4740    8.7670 C.3   149  ARG149      0.1694
    156  C         30.5670  -11.4640    7.6630 C.2   149  ARG149      0.2592
    157  O         30.9520  -11.6190    6.5080 O.2   149  ARG149     -0.2718
    158  CB        29.6230  -13.0370    9.4080 C.3   149  ARG149      0.0321
    159  CG        28.6060  -13.6280    8.4210 C.3   149  ARG149      0.0489
    160  CD        27.6460  -14.6390    9.0860 C.3   149  ARG149      0.2205
    161  NE        26.5010  -14.0530    9.7870 N.pl3 149  ARG149     -0.0865
    162  CZ        25.3790  -13.6610    9.1950 C.cat 149  ARG149      0.5346
    163  NH1       25.2430  -13.7830    7.8760 N.pl3 149  ARG149      0.1354
    164  NH2       24.3770  -13.1760    9.9250 N.pl3 149  ARG149      0.1354
    165  N         29.8760  -10.4030    8.0260 N.am  150  PHE150     -0.1976
    166  CA        29.4850   -9.4270    7.0430 C.3   150  PHE150      0.1639
    167  C         30.6710   -8.8240    6.3620 C.2   150  PHE150      0.2290
    168  O         30.6740   -8.6530    5.1530 O.2   150  PHE150     -0.2864
    169  CB        28.6760   -8.3460    7.7190 C.3   150  PHE150      0.0560
    170  CG        27.5310   -8.8770    8.5010 C.ar  150  PHE150     -0.0200
    171  CD1       27.1260   -8.2500    9.6690 C.ar  150  PHE150     -0.0042
    172  CD2       26.8240   -9.9980    8.0480 C.ar  150  PHE150     -0.0042
    173  CE1       26.0240   -8.7250   10.3770 C.ar  150  PHE150     -0.0003
    174  CE2       25.7300  -10.4800    8.7370 C.ar  150  PHE150     -0.0003
    175  CZ        25.3230   -9.8470    9.9070 C.ar  150  PHE150     -0.0000
    176  N         31.6550  -11.5310    4.0110 N.3   153  ARG153     -0.1245
    177  CA        30.6690  -11.7530    2.9620 C.3   153  ARG153      0.1563
    178  C         30.3560  -10.5550    2.0550 C.2   153  ARG153      0.2260
    179  O         29.9690  -10.7210    0.9060 O.2   153  ARG153     -0.2867
    180  CB        29.3850  -12.2930    3.5990 C.3   153  ARG153      0.0307
    181  CG        28.0740  -11.5690    3.3090 C.3   153  ARG153      0.0489
    182  CD        26.9000  -12.3850    3.9330 C.3   153  ARG153      0.2205
    183  NE        25.6340  -11.6580    3.9230 N.pl3 153  ARG153     -0.0865
    184  CZ        25.1230  -11.0660    2.8410 C.cat 153  ARG153      0.5346
    185  NH1       25.7730  -11.1240    1.6850 N.pl3 153  ARG153      0.1354
    186  NH2       23.9700  -10.3960    2.9090 N.pl3 153  ARG153      0.1354
    187  N         25.1960  -19.6590   20.9860 N.3   182  ARG182     -0.1245
    188  CA        25.1560  -18.5050   20.0930 C.3   182  ARG182      0.1563
    189  C         26.3960  -18.5390   19.1990 C.2   182  ARG182      0.2260
    190  O         26.2860  -18.5490   17.9620 O.2   182  ARG182     -0.2867
    191  CB        25.1640  -17.1940   20.8980 C.3   182  ARG182      0.0307
    192  CG        24.0710  -16.9820   21.9430 C.3   182  ARG182      0.0489
    193  CD        22.7650  -16.4240   21.3610 C.3   182  ARG182      0.2205
    194  NE        22.8490  -15.0640   20.7890 N.pl3 182  ARG182     -0.0865
    195  CZ        23.2550  -13.9560   21.4260 C.cat 182  ARG182      0.5346
    196  NH1       23.6500  -14.0000   22.6980 N.pl3 182  ARG182      0.1354
    197  NH2       23.2230  -12.7860   20.7910 N.pl3 182  ARG182      0.1354
    198  N         26.8130  -20.4460   10.6540 N.3   189  LEU189     -0.1245
    199  CA        26.2750  -19.4520    9.7290 C.3   189  LEU189      0.1561
    200  C         27.3650  -19.1000    8.7340 C.2   189  LEU189      0.2260
    201  O         27.1700  -19.1930    7.5240 O.2   189  LEU189     -0.2867
    202  CB        25.8530  -18.1960   10.5030 C.3   189  LEU189      0.0270
    203  CG        24.5780  -17.4110   10.1200 C.3   189  LEU189      0.0019
    204  CD1       24.2200  -16.3870   11.2230 C.3   189  LEU189      0.0001
    205  CD2       24.7770  -16.7240    8.7610 C.3   189  LEU189      0.0001
@<TRIPOS>BOND
     1    38    39    1
     2    39    40    1
     3    39    42    1
     4    40    41    2
     5    42    43    1
     6    43    44    1
     7    47    48    1
     8    33    32    2
     9    44    45    1
    10    45    46    1
    11    50    49    2
    12    32    31    1
    13    48    49    1
    14    48    51    1
    15   179   178    2
    16    53    51    1
    17    31    34    1
    18    31    30    1
    19    51    52    1
    20    34    35    1
    21    22    21    2
    22   185   184    1
    23   178   177    1
    24    35    37   ar
    25    35    36   ar
    26    30    21   am
    27    21    20    1
    28   184   186    1
    29   184   183    2
    30   177   180    1
    31   177   176    1
    32    15    14    2
    33   181   180    1
    34   181   182    1
    35    18    16    1
    36    54    55    1
    37   183   182    1
    38    20    19    1
    39    20    23    1
    40    14    13    1
    41    24    23    1
    42    24    25    1
    43    13    16    1
    44    13    12    1
    45    16    17    1
    46    55    56    1
    47    55    58    1
    48    57    56    2
    49    26    25    1
    50    26    27    2
    51   168   167    2
    52    11    10    2
    53    29    27    1
    54    58    59    1
    55    27    28    1
    56    12    10   am
    57   167   166    1
    58   157   156    2
    59    10     9    1
    60   166   169    1
    61   166   165    1
    62    59    61   ar
    63    59    60   ar
    64   201   200    2
    65   156   165   am
    66   156   155    1
    67   169   170    1
    68   163   162    1
    69     9     8    1
    70    62    63    1
    71   172   170   ar
    72   172   174   ar
    73   159   160    1
    74   159   158    1
    75   170   171   ar
    76     1     2    1
    77   200   199    1
    78   174   175   ar
    79   205   203    1
    80   155   158    1
    81   155   154    1
    82   115   114    2
    83    65    64    2
    84     4     3    2
    85   160   161    1
    86   162   161    2
    87   162   164    1
    88     3     2    1
    89    63    64    1
    90    63    66    1
    91    68    67   ar
    92     2     5    1
    93   109   110    1
    94   171   173   ar
    95   199   202    1
    96   199   198    1
    97   114   116   am
    98   114   113    1
    99    67    69   ar
   100    67    66    1
   101   110   113    1
   102   110   111    1
   103   175   173   ar
   104   203   202    1
   105   203   204    1
   106   111   112    2
   107     5     6    1
   108     5     7    1
   109   146   145    2
   110   145   144    1
   111   152   151    1
   112   153   151    1
   113   151   150    2
   114   144   147    1
   115   144   143    1
   116   108   106   ar
   117   150   149    1
   118   147   148    1
   119   105   106    1
   120   105   102    1
   121   149   148    1
   122    99    98    1
   123   106   107   ar
   124    98    97    2
   125    98   100    1
   126    96    97    1
   127    96    95    1
   128   103   102    1
   129   103   104    2
   130   102   101    1
   131    95    94    1
   132    94    91    1
   133   101    92   am
   134   135   134    2
   135    92    91    1
   136    92    93    2
   137   134   133    1
   138    91    90    1
   139   128   127    2
   140   133   136    1
   141   133   132    1
   142   136   137    1
   143    90    81   am
   144   137   138    1
   145   190   189    2
   146   131   129    1
   147   127   132   am
   148   127   126    1
   149    89    87    1
   150   138   139    1
   151   139   140    2
   152    81    82    2
   153    81    80    1
   154    87    88    1
   155    87    86    2
   156   130   129    1
   157   189   188    1
   158   129   126    1
   159   126   125    1
   160    79    80    1
   161   140   142    1
   162   140   141    1
   163    86    85    1
   164    80    83    1
   165   188   191    1
   166   188   187    1
   167    84    85    1
   168    84    83    1
   169   194   193    1
   170   194   195    2
   171   197   195    1
   172   191   192    1
   173   120   119    2
   174   124   122   ar
   175    77    76   ar
   176   193   192    1
   177   195   196    1
   178   122   123   ar
   179   122   121    1
   180   121   118    1
   181   119   118    1
   182    76    75    1
   183    76    78   ar
   184    75    74    1
   185   118   117    1
   186    70    71    1
   187    71    74    1
   188    71    72    1
   189    72    73    2
