@<TRIPOS>MOLECULE
tmp/1vfhA00.pdb
 133 130 0 0 0
SMALL
GASTEIGER

@<TRIPOS>ATOM
      1  N         -8.4860    3.9410   22.0860 N.3    34  VAL34      -0.1245
      2  CA        -9.9240    3.8430   22.3110 C.3    34  VAL34       0.1561
      3  C        -10.2380    4.1740   23.7710 C.2    34  VAL34       0.2260
      4  O         -9.8390    3.4520   24.6890 O.2    34  VAL34      -0.2867
      5  CB       -10.4440    2.4400   21.9860 C.3    34  VAL34       0.0252
      6  CG1      -11.9470    2.3960   22.1670 C.3    34  VAL34       0.0019
      7  CG2      -10.0670    2.0740   20.5540 C.3    34  VAL34       0.0019
      8  N        -13.4760    4.7180   24.9440 N.3    36  LYS36      -0.1245
      9  CA       -14.9070    4.5390   25.1440 C.3    36  LYS36       0.1561
     10  C        -15.2110    4.0870   26.5830 C.2    36  LYS36       0.2260
     11  O        -14.3510    3.5260   27.2650 O.2    36  LYS36      -0.2867
     12  CB       -15.4530    3.4980   24.1550 C.3    36  LYS36       0.0271
     13  CG       -14.9280    2.0860   24.3710 C.3    36  LYS36       0.0035
     14  CD       -15.9630    1.0610   23.9630 C.3    36  LYS36       0.0206
     15  CE       -15.3720   -0.3360   23.8490 C.3    36  LYS36       0.1093
     16  NZ       -14.9650   -0.5340   22.4480 N.3    36  LYS36      -0.1314
     17  N        -12.5980    3.0480   29.6450 N.3    40  TYR40      -0.1241
     18  CA       -12.6350    1.7630   30.3190 C.3    40  TYR40       0.1605
     19  C        -12.6280    1.9190   31.8460 C.2    40  TYR40       0.2264
     20  O        -12.0650    1.0830   32.5520 O.2    40  TYR40      -0.2867
     21  CB       -11.4300    0.9360   29.8920 C.3    40  TYR40       0.0534
     22  CG       -11.5170    0.4050   28.4850 C.ar   40  TYR40      -0.0201
     23  CD1      -11.8010    1.2520   27.4170 C.ar   40  TYR40      -0.0009
     24  CD2      -11.3060   -0.9430   28.2210 C.ar   40  TYR40      -0.0009
     25  CE1      -11.8710    0.7650   26.1200 C.ar   40  TYR40       0.0417
     26  CE2      -11.3740   -1.4410   26.9280 C.ar   40  TYR40       0.0417
     27  CZ       -11.6570   -0.5810   25.8830 C.ar   40  TYR40       0.1957
     28  OH       -11.7170   -1.0700   24.6010 O.3    40  TYR40      -0.2866
     29  N        -18.3810    5.0600   16.3870 N.3    82  TRP82      -0.1241
     30  CA       -19.0780    4.0980   15.5490 C.3    82  TRP82       0.1605
     31  C        -20.4520    3.6130   15.9800 C.2    82  TRP82       0.2264
     32  O        -21.1290    2.9580   15.1890 O.2    82  TRP82      -0.2867
     33  CB       -18.1800    2.8810   15.3780 C.3    82  TRP82       0.0550
     34  CG       -17.5500    2.4500   16.6770 C.ar   82  TRP82       0.0003
     35  CD1      -18.1470    1.7320   17.6800 C.ar   82  TRP82       0.0946
     36  CD2      -16.1980    2.6830   17.1010 C.ar   82  TRP82       0.0152
     37  NE1      -17.2480    1.5020   18.6940 N.ar   82  TRP82      -0.2442
     38  CE2      -16.0450    2.0730   18.3670 C.ar   82  TRP82       0.0810
     39  CE3      -15.1010    3.3450   16.5330 C.ar   82  TRP82       0.0012
     40  CZ2      -14.8340    2.1070   19.0770 C.ar   82  TRP82       0.0191
     41  CZ3      -13.8950    3.3750   17.2400 C.ar   82  TRP82       0.0001
     42  CH2      -13.7740    2.7580   18.4960 C.ar   82  TRP82       0.0015
     43  N        -21.9980   -8.2720   14.3610 N.3   133  ARG133     -0.1245
     44  CA       -22.4770   -7.2160   15.2430 C.3   133  ARG133      0.1563
     45  C        -22.9250   -6.0210   14.4140 C.2   133  ARG133      0.2260
     46  O        -24.0420   -6.0070   13.8960 O.2   133  ARG133     -0.2867
     47  CB       -21.3680   -6.7960   16.2080 C.3   133  ARG133      0.0307
     48  CG       -21.8780   -6.2060   17.5100 C.3   133  ARG133      0.0489
     49  CD       -20.7780   -6.1850   18.5540 C.3   133  ARG133      0.2205
     50  NE       -19.8680   -5.0660   18.3420 N.pl3 133  ARG133     -0.0865
     51  CZ       -18.7150   -4.9080   18.9790 C.cat 133  ARG133      0.5346
     52  NH1      -17.9540   -3.8500   18.7150 N.pl3 133  ARG133      0.1354
     53  NH2      -18.3210   -5.8010   19.8790 N.pl3 133  ARG133      0.1354
     54  N        -13.0850   -0.1730    7.4040 N.3   163  TRP163     -0.1241
     55  CA       -12.6460   -0.9730    8.5380 C.3   163  TRP163      0.1605
     56  C        -13.6030   -2.0830    8.9490 C.2   163  TRP163      0.2264
     57  O        -14.7360   -2.1610    8.4820 O.2   163  TRP163     -0.2867
     58  CB       -12.4280   -0.0510    9.7330 C.3   163  TRP163      0.0550
     59  CG       -13.7020    0.5890   10.2130 C.ar  163  TRP163      0.0003
     60  CD1      -14.5080    1.4480    9.5130 C.ar  163  TRP163      0.0946
     61  CD2      -14.3250    0.4070   11.4920 C.ar  163  TRP163      0.0152
     62  NE1      -15.5930    1.8110   10.2790 N.ar  163  TRP163     -0.2442
     63  CE2      -15.5070    1.1880   11.4970 C.ar  163  TRP163      0.0810
     64  CE3      -13.9980   -0.3400   12.6360 C.ar  163  TRP163      0.0012
     65  CZ2      -16.3670    1.2430   12.6030 C.ar  163  TRP163      0.0191
     66  CZ3      -14.8550   -0.2870   13.7400 C.ar  163  TRP163      0.0001
     67  CH2      -16.0250    0.5020   13.7120 C.ar  163  TRP163      0.0015
     68  N        -14.0120   -5.3710   12.4120 N.3   165  HIS165     -0.1241
     69  CA       -13.6940   -5.7450   13.7900 C.3   165  HIS165      0.1621
     70  C        -13.6680   -7.2760   14.0020 C.2   165  HIS165      0.2264
     71  O        -14.5600   -7.9910   13.5390 O.2   165  HIS165     -0.2867
     72  CB       -14.7330   -5.0820   14.7100 C.3   165  HIS165      0.0745
     73  CG       -14.3580   -5.0790   16.1590 C.ar  165  HIS165      0.0817
     74  ND1      -13.0800   -4.8110   16.6000 N.ar  165  HIS165     -0.2268
     75  CD2      -15.0980   -5.3200   17.2660 C.ar  165  HIS165      0.1154
     76  CE1      -13.0490   -4.8910   17.9180 C.ar  165  HIS165      0.1986
     77  NE2      -14.2600   -5.1980   18.3470 N.ar  165  HIS165     -0.2212
     78  N         -7.7500   -4.8430   17.0080 N.3   205  ASN205     -0.1225
     79  CA        -8.0880   -4.3400   18.3320 C.3   205  ASN205      0.1785
     80  C         -6.8320   -4.6410   19.1500 C.2   205  ASN205      0.2598
     81  O         -5.7840   -4.9210   18.5710 O.2   205  ASN205     -0.2718
     82  CB        -9.3030   -5.0770   18.9020 C.3   205  ASN205      0.1169
     83  CG        -9.1790   -6.5810   18.7890 C.2   205  ASN205      0.2627
     84  OD1       -8.1860   -7.0960   18.2690 O.2   205  ASN205     -0.2716
     85  ND2      -10.1910   -7.3010   19.2790 N.am  205  ASN205     -0.0877
     86  N         -6.9140   -4.6030   20.4760 N.am  206  SER206     -0.1938
     87  CA        -5.7320   -4.8640   21.3000 C.3   206  SER206      0.2040
     88  C         -5.1130   -6.2570   21.0990 C.2   206  SER206      0.2485
     89  O         -3.9090   -6.3720   20.8640 O.2   206  SER206     -0.2729
     90  CB        -6.0550   -4.6520   22.7840 C.3   206  SER206      0.2129
     91  OG        -5.9440   -3.2850   23.1350 O.3   206  SER206     -0.2179
     92  N         -5.9170   -7.3320   21.1950 N.am  207  PRO207     -0.2726
     93  CA        -5.3220   -8.6600   21.0010 C.3   207  PRO207      0.1402
     94  C         -4.6930   -8.8960   19.6200 C.2   207  PRO207      0.2269
     95  O         -3.6410   -9.5120   19.5240 O.2   207  PRO207     -0.2865
     96  CB        -6.4690   -9.6260   21.2970 C.3   207  PRO207      0.0296
     97  CG        -7.7090   -8.8170   21.1630 C.3   207  PRO207      0.0237
     98  CD        -7.3600   -7.4040   21.4890 C.3   207  PRO207      0.0939
     99  N         -6.5170   -0.0600   16.4820 N.3   221  ARG221     -0.1245
    100  CA        -7.4190    0.4790   17.4920 C.3   221  ARG221      0.1563
    101  C         -7.1720   -0.2350   18.8140 C.2   221  ARG221      0.2260
    102  O         -7.7120   -1.3100   19.0550 O.2   221  ARG221     -0.2867
    103  CB        -8.8640    0.2820   17.0410 C.3   221  ARG221      0.0307
    104  CG        -9.2020    1.0070   15.7580 C.3   221  ARG221      0.0489
    105  CD       -10.6760    0.8740   15.4110 C.3   221  ARG221      0.2205
    106  NE       -11.1690   -0.4870   15.5890 N.pl3 221  ARG221     -0.0865
    107  CZ       -11.1240   -1.4290   14.6520 C.cat 221  ARG221      0.5346
    108  NH1      -10.6110   -1.1610   13.4590 N.pl3 221  ARG221      0.1354
    109  NH2      -11.5940   -2.6400   14.9090 N.pl3 221  ARG221      0.1354
    110  N         -7.5520   -0.4020   22.8080 N.3   223  GLY223     -0.1210
    111  CA        -8.2680    0.0720   23.9730 C.3   223  GLY223      0.1956
    112  C         -7.6560   -0.4700   25.2600 C.2   223  GLY223      0.2611
    113  O         -6.8310    0.1940   25.8910 O.2   223  GLY223     -0.2717
    114  N         -8.0290   -1.6920   25.6290 N.am  224  LEU224     -0.1979
    115  CA        -7.5600   -2.3040   26.8710 C.3   224  LEU224      0.1596
    116  C         -6.0720   -2.2590   27.1710 C.2   224  LEU224      0.2287
    117  O         -5.6760   -1.8240   28.2590 O.2   224  LEU224     -0.2864
    118  CB        -8.0400   -3.7570   26.9690 C.3   224  LEU224      0.0297
    119  CG        -7.8970   -4.3620   28.3760 C.3   224  LEU224      0.0022
    120  CD1       -8.8310   -3.6540   29.3460 C.3   224  LEU224      0.0001
    121  CD2       -8.1990   -5.8370   28.3390 C.3   224  LEU224      0.0001
    122  N        -11.8120   -7.0740   31.1010 N.3   358  TYR358     -0.1241
    123  CA       -12.4790   -5.9410   30.4670 C.3   358  TYR358      0.1605
    124  C        -13.6110   -5.4190   31.3560 C.2   358  TYR358      0.2264
    125  O        -13.7000   -4.2190   31.6250 O.2   358  TYR358     -0.2867
    126  CB       -13.0850   -6.3590   29.1190 C.3   358  TYR358      0.0534
    127  CG       -12.1190   -6.4440   27.9520 C.ar  358  TYR358     -0.0201
    128  CD1      -11.9630   -5.3710   27.0650 C.ar  358  TYR358     -0.0009
    129  CD2      -11.4210   -7.6210   27.6900 C.ar  358  TYR358     -0.0009
    130  CE1      -11.1380   -5.4790   25.9400 C.ar  358  TYR358      0.0417
    131  CE2      -10.5950   -7.7380   26.5720 C.ar  358  TYR358      0.0417
    132  CZ       -10.4610   -6.6680   25.7020 C.ar  358  TYR358      0.1957
    133  OH        -9.6590   -6.8020   24.5930 O.3   358  TYR358     -0.2866
@<TRIPOS>BOND
     1    54    55    1
     2    57    56    2
     3    55    56    1
     4    55    58    1
     5    60    59   ar
     6    60    62   ar
     7    58    59    1
     8    59    61   ar
     9    62    63   ar
    10    61    63   ar
    11    61    64   ar
    12    63    65   ar
    13    68    69    1
    14    65    67   ar
    15    64    66   ar
    16   108   107    1
    17    71    70    2
    18    67    66   ar
    19    69    70    1
    20    69    72    1
    21    46    45    2
    22    43    44    1
    23    45    44    1
    24   107   109    1
    25   107   106    2
    26    72    73    1
    27    32    31    2
    28    44    47    1
    29    33    30    1
    30    33    34    1
    31   105   106    1
    32   105   104    1
    33    30    31    1
    34    30    29    1
    35   104   103    1
    36    73    74   ar
    37    73    75   ar
    38    47    48    1
    39    99   100    1
    40    39    36   ar
    41    39    41   ar
    42    74    76   ar
    43    34    36   ar
    44    34    35   ar
    45    78    79    1
    46   103   100    1
    47    36    38   ar
    48    41    42   ar
    49    75    77   ar
    50   100   101    1
    51    48    49    1
    52    35    37   ar
    53    76    77   ar
    54    84    83    2
    55    79    82    1
    56    79    80    1
    57    50    49    1
    58    50    51    2
    59    38    37   ar
    60    38    40   ar
    61    42    40   ar
    62    81    80    2
    63    52    51    1
    64    83    82    1
    65    83    85   am
    66   101   102    2
    67    51    53    1
    68    80    86   am
    69    95    94    2
    70    94    93    1
    71    86    87    1
    72     7     5    1
    73    89    88    2
    74    93    92    1
    75    93    96    1
    76    88    92   am
    77    88    87    1
    78    97    96    1
    79    97    98    1
    80    92    98    1
    81    87    90    1
    82     5     6    1
    83     5     2    1
    84     1     2    1
    85     2     3    1
    86    16    15    1
    87    90    91    1
    88   110   111    1
    89     3     4    2
    90    15    14    1
    91    14    13    1
    92   111   112    1
    93    12    13    1
    94    12     9    1
    95   133   132    1
    96    28    27    1
    97     8     9    1
    98     9    10    1
    99   112   114   am
   100   112   113    2
   101   114   115    1
   102   132   130   ar
   103   132   131   ar
   104    27    25   ar
   105    27    26   ar
   106   130   128   ar
   107    25    23   ar
   108   131   129   ar
   109    10    11    2
   110   115   118    1
   111   115   116    1
   112    26    24   ar
   113   118   119    1
   114   128   127   ar
   115   116   117    2
   116    23    22   ar
   117   129   127   ar
   118   127   126    1
   119    24    22   ar
   120   121   119    1
   121   119   120    1
   122    22    21    1
   123   126   123    1
   124    17    18    1
   125    21    18    1
   126    18    19    1
   127   123   122    1
   128   123   124    1
   129   124   125    2
   130    19    20    2
