@<TRIPOS>MOLECULE
tmp/1vfmA00.pdb
 193 187 0 0 0
SMALL
GASTEIGER

@<TRIPOS>ATOM
      1  N         37.4980   68.0780   66.8320 N.3   164  HIS164     -0.1241
      2  CA        37.6000   66.6400   67.0410 C.3   164  HIS164      0.1621
      3  C         37.6010   66.2730   68.5230 C.2   164  HIS164      0.2264
      4  O         37.5540   65.0930   68.8710 O.2   164  HIS164     -0.2867
      5  CB        38.8700   66.0950   66.3910 C.3   164  HIS164      0.0745
      6  CG        40.0970   66.2780   67.2270 C.ar  164  HIS164      0.0817
      7  ND1       40.5360   67.5170   67.6440 N.ar  164  HIS164     -0.2268
      8  CD2       40.9700   65.3770   67.7390 C.ar  164  HIS164      0.1154
      9  CE1       41.6270   67.3700   68.3750 C.ar  164  HIS164      0.1986
     10  NE2       41.9120   66.0810   68.4490 N.ar  164  HIS164     -0.2212
     11  N         34.7440   61.8730   72.6430 N.3   201  HIS201     -0.1226
     12  CA        33.4170   62.4650   72.5130 C.3   201  HIS201      0.1752
     13  C         32.5430   61.6490   71.5740 C.2   201  HIS201      0.2596
     14  O         31.3420   61.9030   71.4640 O.2   201  HIS201     -0.2718
     15  CB        33.5050   63.8870   71.9610 C.3   201  HIS201      0.0759
     16  CG        33.5550   63.9510   70.4670 C.ar  201  HIS201      0.0818
     17  ND1       34.6730   63.5940   69.7410 N.ar  201  HIS201     -0.2268
     18  CD2       32.6110   64.2930   69.5580 C.ar  201  HIS201      0.1154
     19  CE1       34.4140   63.7130   68.4520 C.ar  201  HIS201      0.1986
     20  NE2       33.1680   64.1350   68.3140 N.ar  201  HIS201     -0.2212
     21  N         33.1560   60.6940   70.8750 N.am  202  HIS202     -0.1975
     22  CA        32.4330   59.8210   69.9450 C.3   202  HIS202      0.1656
     23  C         32.2850   58.4440   70.5770 C.2   202  HIS202      0.2291
     24  O         31.3830   57.6890   70.2160 O.2   202  HIS202     -0.2864
     25  CB        33.1730   59.7170   68.6140 C.3   202  HIS202      0.0771
     26  CG        34.6050   59.3190   68.7550 C.ar  202  HIS202      0.0820
     27  ND1       34.9890   58.0410   69.0950 N.ar  202  HIS202     -0.2267
     28  CD2       35.7450   60.0400   68.6460 C.ar  202  HIS202      0.1154
     29  CE1       36.3050   57.9920   69.1910 C.ar  202  HIS202      0.1986
     30  NE2       36.7890   59.1920   68.9240 N.ar  202  HIS202     -0.2212
     31  N         34.2320   55.5530   70.4790 N.3   204  TYR204     -0.1241
     32  CA        34.5280   54.2980   69.7740 C.3   204  TYR204      0.1605
     33  C         35.7360   53.5850   70.4000 C.2   204  TYR204      0.2264
     34  O         36.0260   52.4290   70.0870 O.2   204  TYR204     -0.2867
     35  CB        34.7490   54.5450   68.2600 C.3   204  TYR204      0.0534
     36  CG        33.4500   54.5870   67.4560 C.ar  204  TYR204     -0.0201
     37  CD1       32.6790   53.4350   67.2750 C.ar  204  TYR204     -0.0009
     38  CD2       32.9620   55.7840   66.9300 C.ar  204  TYR204     -0.0009
     39  CE1       31.4570   53.4780   66.5990 C.ar  204  TYR204      0.0417
     40  CE2       31.7390   55.8330   66.2530 C.ar  204  TYR204      0.0417
     41  CZ        30.9940   54.6810   66.0970 C.ar  204  TYR204      0.1957
     42  OH        29.7680   54.7360   65.4780 O.3   204  TYR204     -0.2866
     43  N         37.6450   46.4270   67.9330 N.3   244  HIS244     -0.1241
     44  CA        38.7500   46.9780   68.7080 C.3   244  HIS244      0.1621
     45  C         38.2420   47.5010   70.0540 C.2   244  HIS244      0.2264
     46  O         37.0350   47.5620   70.3030 O.2   244  HIS244     -0.2867
     47  CB        39.4170   48.1030   67.9170 C.3   244  HIS244      0.0745
     48  CG        38.4430   49.0390   67.2730 C.ar  244  HIS244      0.0817
     49  ND1       37.8520   50.0820   67.9490 N.ar  244  HIS244     -0.2268
     50  CD2       37.9240   49.0620   66.0180 C.ar  244  HIS244      0.1154
     51  CE1       37.0120   50.7100   67.1420 C.ar  244  HIS244      0.1986
     52  NE2       37.0370   50.1090   65.9630 N.ar  244  HIS244     -0.2212
     53  N         42.8650   49.4990   64.9150 N.3   286  PHE286     -0.1227
     54  CA        41.8520   49.7120   63.9030 C.3   286  PHE286      0.1736
     55  C         42.5390   50.6480   62.9270 C.2   286  PHE286      0.2595
     56  O         43.3370   51.4830   63.3470 O.2   286  PHE286     -0.2718
     57  CB        40.6310   50.3850   64.5440 C.3   286  PHE286      0.0547
     58  CG        39.8760   51.3060   63.6250 C.ar  286  PHE286     -0.0202
     59  CD1       40.2990   52.6160   63.4310 C.ar  286  PHE286     -0.0042
     60  CD2       38.7320   50.8640   62.9620 C.ar  286  PHE286     -0.0042
     61  CE1       39.5990   53.4700   62.5920 C.ar  286  PHE286     -0.0003
     62  CE2       38.0230   51.7140   62.1160 C.ar  286  PHE286     -0.0003
     63  CZ        38.4570   53.0190   61.9330 C.ar  286  PHE286     -0.0000
     64  N         42.2520   50.5090   61.6380 N.am  287  ALA287     -0.1966
     65  CA        42.8620   51.3740   60.6360 C.3   287  ALA287      0.1728
     66  C         44.3730   51.3500   60.7520 C.2   287  ALA287      0.2616
     67  O         44.9690   50.2880   60.8810 O.2   287  ALA287     -0.2715
     68  CB        42.3590   52.8010   60.7930 C.3   287  ALA287      0.0334
     69  N         44.9940   52.5250   60.7110 N.am  288  VAL288     -0.1977
     70  CA        46.4440   52.5990   60.8040 C.3   288  VAL288      0.1596
     71  C         46.9480   53.6010   61.8430 C.2   288  VAL288      0.2287
     72  O         46.5690   54.7750   61.8350 O.2   288  VAL288     -0.2864
     73  CB        47.0690   52.9420   59.4250 C.3   288  VAL288      0.0276
     74  CG1       48.5910   53.0280   59.5380 C.3   288  VAL288      0.0022
     75  CG2       46.6790   51.8820   58.4060 C.3   288  VAL288      0.0022
     76  N         46.3420   54.0460   65.0900 N.3   290  VAL290     -0.1245
     77  CA        45.3810   54.6800   65.9840 C.3   290  VAL290      0.1561
     78  C         45.5910   54.0210   67.3590 C.2   290  VAL290      0.2260
     79  O         45.0040   52.9810   67.6660 O.2   290  VAL290     -0.2867
     80  CB        43.9370   54.4630   65.4780 C.3   290  VAL290      0.0252
     81  CG1       42.9570   55.2810   66.3000 C.3   290  VAL290      0.0019
     82  CG2       43.8460   54.8510   64.0130 C.3   290  VAL290      0.0019
     83  N         42.8190   52.7010   69.9250 N.3   293  MET293     -0.1245
     84  CA        41.9540   51.5920   69.5670 C.3   293  MET293      0.1570
     85  C         42.6300   50.2710   69.2230 C.2   293  MET293      0.2261
     86  O         42.5870   49.8170   68.0720 O.2   293  MET293     -0.2867
     87  CB        41.0470   52.0220   68.4150 C.3   293  MET293      0.0387
     88  CG        40.4130   53.3720   68.6290 C.3   293  MET293      0.0595
     89  SD        39.3350   53.7870   67.2780 S.3   293  MET293     -0.1393
     90  CE        38.1290   54.8520   68.0810 C.3   293  MET293      0.0692
     91  N         24.0770   47.2070   66.0880 N.3   323  ARG323     -0.1245
     92  CA        24.6240   47.7480   64.8540 C.3   323  ARG323      0.1563
     93  C         26.1130   47.3950   64.9870 C.2   323  ARG323      0.2260
     94  O         26.8230   47.9820   65.7990 O.2   323  ARG323     -0.2867
     95  CB        24.4310   49.2640   64.7900 C.3   323  ARG323      0.0307
     96  CG        24.4390   49.8410   63.3820 C.3   323  ARG323      0.0489
     97  CD        25.6430   49.3620   62.5830 C.3   323  ARG323      0.2205
     98  NE        26.9280   49.8010   63.1330 N.pl3 323  ARG323     -0.0865
     99  CZ        27.4380   51.0200   62.9820 C.cat 323  ARG323      0.5346
    100  NH1       28.6150   51.3120   63.5200 N.pl3 323  ARG323      0.1354
    101  NH2       26.7780   51.9430   62.2890 N.pl3 323  ARG323      0.1354
    102  N         29.6370   47.6770   64.4540 N.3   325  ASN325     -0.1225
    103  CA        30.6680   48.6020   64.0000 C.3   325  ASN325      0.1785
    104  C         31.8580   47.8400   63.4270 C.2   325  ASN325      0.2597
    105  O         32.3570   46.9080   64.0520 O.2   325  ASN325     -0.2718
    106  CB        31.1290   49.4640   65.1800 C.3   325  ASN325      0.1169
    107  CG        32.3360   50.3180   64.8470 C.2   325  ASN325      0.2627
    108  OD1       32.2110   51.3710   64.2230 O.2   325  ASN325     -0.2716
    109  ND2       33.5200   49.8620   65.2540 N.am  325  ASN325     -0.0877
    110  N         32.3180   48.2420   62.2450 N.am  326  VAL326     -0.1980
    111  CA        33.4630   47.5970   61.6020 C.3   326  VAL326      0.1595
    112  C         33.2890   46.0660   61.5280 C.2   326  VAL326      0.2287
    113  O         34.2490   45.3010   61.4820 O.2   326  VAL326     -0.2864
    114  CB        34.7820   48.0020   62.3410 C.3   326  VAL326      0.0276
    115  CG1       35.7970   46.8950   62.2850 C.3   326  VAL326      0.0022
    116  CG2       35.3960   49.2380   61.6830 C.3   326  VAL326      0.0022
    117  N         32.9290   43.6970   59.3600 N.3   328  ASN328     -0.1225
    118  CA        33.7750   42.8790   58.5000 C.3   328  ASN328      0.1785
    119  C         35.1990   42.6020   58.9490 C.2   328  ASN328      0.2597
    120  O         35.9180   41.8830   58.2660 O.2   328  ASN328     -0.2718
    121  CB        33.7840   43.4330   57.0630 C.3   328  ASN328      0.1169
    122  CG        34.2770   44.8670   56.9800 C.2   328  ASN328      0.2627
    123  OD1       34.0200   45.6810   57.8660 O.2   328  ASN328     -0.2716
    124  ND2       34.9700   45.1890   55.8910 N.am  328  ASN328     -0.0877
    125  N         35.6300   43.1380   60.0840 N.am  329  GLU329     -0.1979
    126  CA        36.9870   42.8310   60.5040 C.3   329  GLU329      0.1602
    127  C         37.0480   41.8210   61.6600 C.2   329  GLU329      0.2287
    128  O         38.0970   41.6190   62.2810 O.2   329  GLU329     -0.2864
    129  CB        37.7490   44.1110   60.8260 C.3   329  GLU329      0.0415
    130  CG        37.9880   44.9320   59.5870 C.3   329  GLU329      0.1163
    131  CD        39.0570   45.9910   59.7520 C.2   329  GLU329      0.3649
    132  OE1       40.0940   45.6940   60.3860 O.co2 329  GLU329     -0.2457
    133  OE2       38.8750   47.1130   59.2240 O.co2 329  GLU329     -0.2457
    134  N         27.8010   46.8770   59.5330 N.3   354  GLU354     -0.1245
    135  CA        28.3240   48.0880   58.9250 C.3   354  GLU354      0.1567
    136  C         29.4930   47.7310   58.0280 C.2   354  GLU354      0.2260
    137  O         30.6480   47.7760   58.4490 O.2   354  GLU354     -0.2867
    138  CB        28.8120   49.0400   60.0120 C.3   354  GLU354      0.0388
    139  CG        29.1500   50.4320   59.5210 C.3   354  GLU354      0.1160
    140  CD        30.1850   51.0990   60.3880 C.2   354  GLU354      0.3649
    141  OE1       30.2210   52.3450   60.4010 O.co2 354  GLU354     -0.2457
    142  OE2       30.9700   50.3770   61.0460 O.co2 354  GLU354     -0.2457
    143  N         31.2310   48.4850   54.2040 N.3   356  TRP356     -0.1241
    144  CA        31.2230   49.3500   53.0300 C.3   356  TRP356      0.1605
    145  C         31.7280   48.6770   51.7560 C.2   356  TRP356      0.2264
    146  O         32.6490   49.1640   51.1030 O.2   356  TRP356     -0.2867
    147  CB        32.0330   50.6330   53.2900 C.3   356  TRP356      0.0550
    148  CG        31.5990   51.4360   54.5010 C.ar  356  TRP356      0.0003
    149  CD1       32.4220   51.9980   55.4390 C.ar  356  TRP356      0.0946
    150  CD2       30.2530   51.7430   54.9160 C.ar  356  TRP356      0.0152
    151  NE1       31.6760   52.6270   56.4140 N.ar  356  TRP356     -0.2442
    152  CE2       30.3440   52.4870   56.1180 C.ar  356  TRP356      0.0810
    153  CE3       28.9860   51.4630   54.3950 C.ar  356  TRP356      0.0012
    154  CZ2       29.2140   52.9510   56.8060 C.ar  356  TRP356      0.0191
    155  CZ3       27.8590   51.9300   55.0860 C.ar  356  TRP356      0.0001
    156  CH2       27.9870   52.6630   56.2770 C.ar  356  TRP356      0.0015
    157  N         27.0460   60.2740   60.9340 N.3   420  HIS420     -0.1226
    158  CA        27.9550   61.1180   61.6890 C.3   420  HIS420      0.1752
    159  C         29.3560   61.0400   61.0880 C.2   420  HIS420      0.2596
    160  O         30.3180   61.5580   61.6610 O.2   420  HIS420     -0.2718
    161  CB        27.9970   60.6700   63.1470 C.3   420  HIS420      0.0759
    162  CG        28.4330   59.2520   63.3260 C.ar  420  HIS420      0.0818
    163  ND1       27.6250   58.1800   63.0140 N.ar  420  HIS420     -0.2268
    164  CD2       29.6040   58.7270   63.7570 C.ar  420  HIS420      0.1154
    165  CE1       28.2790   57.0570   63.2460 C.ar  420  HIS420      0.1986
    166  NE2       29.4840   57.3620   63.6970 N.ar  420  HIS420     -0.2212
    167  N         29.4680   60.3860   59.9350 N.am  421  ASN421     -0.1974
    168  CA        30.7540   60.2430   59.2510 C.3   421  ASN421      0.1688
    169  C         30.7490   60.9520   57.9030 C.2   421  ASN421      0.2292
    170  O         31.6460   60.7370   57.0810 O.2   421  ASN421     -0.2864
    171  CB        31.0780   58.7690   59.0080 C.3   421  ASN421      0.1181
    172  CG        31.3020   57.9940   60.2850 C.2   421  ASN421      0.2629
    173  OD1       30.7720   56.8890   60.4500 O.2   421  ASN421     -0.2716
    174  ND2       32.1020   58.5570   61.1930 N.am  421  ASN421     -0.0877
    175  N         32.8250   65.0800   59.4620 N.3   465  ASP465     -0.1239
    176  CA        33.4450   65.0060   60.7760 C.3   465  ASP465      0.1674
    177  C         34.3940   66.1880   60.9980 C.2   465  ASP465      0.2266
    178  O         35.3670   66.3550   60.2630 O.2   465  ASP465     -0.2867
    179  CB        34.2300   63.6980   60.8900 C.3   465  ASP465      0.1410
    180  CG        34.2740   63.1660   62.3020 C.2   465  ASP465      0.3668
    181  OD1       34.2590   63.9950   63.2400 O.co2 465  ASP465     -0.2456
    182  OD2       34.3310   61.9210   62.4630 O.co2 465  ASP465     -0.2456
    183  N         28.4020   66.7770   63.2560 N.3   469  ARG469     -0.1245
    184  CA        28.0680   66.4260   64.6250 C.3   469  ARG469      0.1563
    185  C         27.7280   67.6480   65.4810 C.2   469  ARG469      0.2260
    186  O         28.0600   67.6910   66.6610 O.2   469  ARG469     -0.2867
    187  CB        29.2290   65.6510   65.2580 C.3   469  ARG469      0.0307
    188  CG        29.5320   64.3130   64.5940 C.3   469  ARG469      0.0489
    189  CD        30.7870   63.6760   65.1690 C.3   469  ARG469      0.2205
    190  NE        31.1260   62.4230   64.5030 N.pl3 469  ARG469     -0.0865
    191  CZ        32.2000   61.6850   64.7870 C.cat 469  ARG469      0.5346
    192  NH1       33.0530   62.0660   65.7330 N.pl3 469  ARG469      0.1354
    193  NH2       32.4340   60.5650   64.1130 N.pl3 469  ARG469      0.1354
@<TRIPOS>BOND
     1   146   145    2
     2   145   144    1
     3   144   147    1
     4   144   143    1
     5   147   148    1
     6   153   150   ar
     7   153   155   ar
     8   148   150   ar
     9   148   149   ar
    10   150   152   ar
    11   155   156   ar
    12   149   151   ar
    13   124   122   am
    14   152   151   ar
    15   152   154   ar
    16   156   154   ar
    17   122   121    1
    18   122   123    2
    19   121   118    1
    20   170   169    2
    21   169   168    1
    22   136   137    2
    23   136   135    1
    24   120   119    2
    25    75    73    1
    26   118   119    1
    27   118   117    1
    28   135   134    1
    29   135   138    1
    30   119   125   am
    31   171   168    1
    32   171   172    1
    33   133   131   ar
    34   168   167    1
    35    73    74    1
    36    73    70    1
    37   175   176    1
    38   139   138    1
    39   139   140    1
    40   130   131    1
    41   130   129    1
    42   131   132   ar
    43   167   159   am
    44   125   126    1
    45   178   177    2
    46   172   173    2
    47   172   174   am
    48   140   141   ar
    49   140   142   ar
    50   126   129    1
    51   126   127    1
    52    65    66    1
    53    65    68    1
    54    65    64    1
    55    69    66   am
    56    69    70    1
    57    66    67    2
    58   176   179    1
    59   176   177    1
    60    70    71    1
    61   179   180    1
    62   157   158    1
    63   159   160    2
    64   159   158    1
    65   113   112    2
    66   112   111    1
    67   111   110    1
    68   111   114    1
    69    64    55   am
    70   127   128    2
    71   116   114    1
    72   158   161    1
    73    72    71    2
    74    63    62   ar
    75    63    61   ar
    76    62    60   ar
    77   110   104   am
    78   115   114    1
    79   101    99    1
    80   180   182   ar
    81   180   181   ar
    82    97    98    1
    83    97    96    1
    84    61    59   ar
    85    55    56    2
    86    55    54    1
    87    60    58   ar
    88    99    98    2
    89    99   100    1
    90   163   165   ar
    91   163   162   ar
    92   161   162    1
    93   165   166   ar
    94   183   184    1
    95   162   164   ar
    96    96    95    1
    97   104   103    1
    98   104   105    2
    99    59    58   ar
   100    58    57    1
   101   166   164   ar
   102    54    57    1
   103    54    53    1
   104   103   102    1
   105   103   106    1
   106    82    80    1
   107   193   191    1
   108   108   107    2
   109   190   191    2
   110   190   189    1
   111   188   189    1
   112   188   187    1
   113   184   187    1
   114   184   185    1
   115   191   192    1
   116    95    92    1
   117   107   106    1
   118   107   109   am
   119    92    93    1
   120    92    91    1
   121    93    94    2
   122    76    77    1
   123    42    41    1
   124    80    77    1
   125    80    81    1
   126   185   186    2
   127    52    50   ar
   128    52    51   ar
   129    77    78    1
   130    50    48   ar
   131    41    40   ar
   132    41    39   ar
   133    40    38   ar
   134     5     2    1
   135     5     6    1
   136    39    37   ar
   137     1     2    1
   138    38    36   ar
   139     2     3    1
   140    51    49   ar
   141     6     7   ar
   142     6     8   ar
   143    48    47    1
   144    48    49   ar
   145    37    36   ar
   146    89    90    1
   147    89    88    1
   148    78    79    2
   149    36    35    1
   150     7     9   ar
   151     8    10   ar
   152    47    44    1
   153    43    44    1
   154    86    85    2
   155    35    32    1
   156    20    19   ar
   157    20    18   ar
   158     9    10   ar
   159    87    88    1
   160    87    84    1
   161    19    17   ar
   162     3     4    2
   163    25    26    1
   164    25    22    1
   165    28    26   ar
   166    28    30   ar
   167    44    45    1
   168    26    27   ar
   169    30    29   ar
   170    27    29   ar
   171    85    84    1
   172    18    16   ar
   173    84    83    1
   174    17    16   ar
   175    32    33    1
   176    32    31    1
   177    22    23    1
   178    22    21    1
   179    45    46    2
   180    34    33    2
   181    24    23    2
   182    16    15    1
   183    21    13   am
   184    14    13    2
   185    13    12    1
   186    15    12    1
   187    12    11    1
