@<TRIPOS>MOLECULE
tmp/1vfsA00.pdb
 141 137 0 0 0
SMALL
GASTEIGER

@<TRIPOS>ATOM
      1  N         33.4820   -4.6250   15.0620 N.3    34  VAL34      -0.1245
      2  CA        32.0610   -4.4250   14.8300 C.3    34  VAL34       0.1561
      3  C         31.7700   -4.7960   13.3800 C.2    34  VAL34       0.2260
      4  O         32.2320   -4.1410   12.4370 O.2    34  VAL34      -0.2867
      5  CB        31.6480   -2.9690   15.0980 C.3    34  VAL34       0.0252
      6  CG1       30.1360   -2.8550   15.0710 C.3    34  VAL34       0.0019
      7  CG2       32.1970   -2.5170   16.4490 C.3    34  VAL34       0.0019
      8  N         28.4980   -5.3520   12.1750 N.3    36  LYS36      -0.1245
      9  CA        27.0750   -5.1840   11.9190 C.3    36  LYS36       0.1561
     10  C         26.8660   -4.6480   10.5030 C.2    36  LYS36       0.2260
     11  O         27.8110   -4.1880    9.8550 O.2    36  LYS36      -0.2867
     12  CB        26.4500   -4.2200   12.9330 C.3    36  LYS36       0.0271
     13  CG        26.9100   -2.7640   12.8370 C.3    36  LYS36       0.0035
     14  CD        26.9100   -2.1180   14.2290 C.3    36  LYS36       0.0206
     15  CE        26.4270   -0.6780   14.2260 C.3    36  LYS36       0.1093
     16  NZ        27.1350    0.1740   13.2560 N.3    36  LYS36      -0.1314
     17  N         29.5910   -3.5910    7.4020 N.3    40  TYR40      -0.1241
     18  CA        29.6190   -2.3080    6.7190 C.3    40  TYR40       0.1605
     19  C         29.6880   -2.5310    5.2100 C.2    40  TYR40       0.2264
     20  O         30.4320   -1.8430    4.5000 O.2    40  TYR40      -0.2867
     21  CB        30.8240   -1.4820    7.1880 C.3    40  TYR40       0.0534
     22  CG        30.6900   -0.9270    8.5940 C.ar   40  TYR40      -0.0201
     23  CD1       30.1330   -1.6950    9.6210 C.ar   40  TYR40      -0.0009
     24  CD2       31.1400    0.3570    8.9050 C.ar   40  TYR40      -0.0009
     25  CE1       30.0310   -1.2010   10.9210 C.ar   40  TYR40       0.0417
     26  CE2       31.0420    0.8650   10.2080 C.ar   40  TYR40       0.0417
     27  CZ        30.4890    0.0780   11.2070 C.ar   40  TYR40       0.1957
     28  OH        30.3970    0.5640   12.4950 O.3    40  TYR40      -0.2866
     29  N         23.4480   -5.1600   20.7480 N.3    82  TRP82      -0.1241
     30  CA        22.8030   -4.1770   21.6090 C.3    82  TRP82       0.1605
     31  C         21.4490   -3.6090   21.1970 C.2    82  TRP82       0.2264
     32  O         20.7900   -2.9680   22.0130 O.2    82  TRP82      -0.2867
     33  CB        23.7710   -3.0170   21.8190 C.3    82  TRP82       0.0550
     34  CG        24.4470   -2.5580   20.5410 C.ar   82  TRP82       0.0003
     35  CD1       23.9310   -1.7120   19.6020 C.ar   82  TRP82       0.0946
     36  CD2       25.7700   -2.8970   20.0910 C.ar   82  TRP82       0.0152
     37  NE1       24.8500   -1.4970   18.5970 N.ar   82  TRP82      -0.2442
     38  CE2       25.9870   -2.2120   18.8740 C.ar   82  TRP82       0.0810
     39  CE3       26.7930   -3.7100   20.5990 C.ar   82  TRP82       0.0012
     40  CZ2       27.1890   -2.3160   18.1550 C.ar   82  TRP82       0.0191
     41  CZ3       27.9900   -3.8120   19.8850 C.ar   82  TRP82       0.0001
     42  CH2       28.1760   -3.1170   18.6760 C.ar   82  TRP82       0.0015
     43  N         20.6470    8.6610   22.5960 N.3   133  ARG133     -0.1245
     44  CA        20.1720    7.5820   21.7390 C.3   133  ARG133      0.1563
     45  C         19.6470    6.4620   22.6260 C.2   133  ARG133      0.2260
     46  O         18.5470    6.5580   23.1810 O.2   133  ARG133     -0.2867
     47  CB        21.3240    7.0690   20.8700 C.3   133  ARG133      0.0307
     48  CG        20.8930    6.2010   19.6980 C.3   133  ARG133      0.0489
     49  CD        21.9770    6.1380   18.6370 C.3   133  ARG133      0.2205
     50  NE        22.9670    5.1140   18.9370 N.pl3 133  ARG133     -0.0865
     51  CZ        24.0530    4.8840   18.2070 C.cat 133  ARG133      0.5346
     52  NH1       24.9000    3.9260   18.5590 N.pl3 133  ARG133      0.1354
     53  NH2       24.2930    5.6110   17.1230 N.pl3 133  ARG133      0.1354
     54  N         28.9770    0.2170   29.6590 N.3   163  TRP163     -0.1241
     55  CA        29.5240    0.9720   28.5430 C.3   163  TRP163      0.1605
     56  C         28.6530    2.1220   28.0670 C.2   163  TRP163      0.2264
     57  O         27.5390    2.3210   28.5530 O.2   163  TRP163     -0.2867
     58  CB        29.7310    0.0190   27.3680 C.3   163  TRP163      0.0550
     59  CG        28.4300   -0.5860   26.8910 C.ar  163  TRP163      0.0003
     60  CD1       27.5540   -1.3410   27.6230 C.ar  163  TRP163      0.0946
     61  CD2       27.8550   -0.4630   25.5830 C.ar  163  TRP163      0.0152
     62  NE1       26.4700   -1.6950   26.8540 N.ar  163  TRP163     -0.2442
     63  CE2       26.6290   -1.1700   25.5960 C.ar  163  TRP163      0.0810
     64  CE3       28.2570    0.1760   24.4000 C.ar  163  TRP163      0.0012
     65  CZ2       25.8020   -1.2540   24.4680 C.ar  163  TRP163      0.0191
     66  CZ3       27.4360    0.0930   23.2830 C.ar  163  TRP163      0.0001
     67  CH2       26.2230   -0.6170   23.3250 C.ar  163  TRP163      0.0015
     68  N         28.5230    5.2910   24.4140 N.3   165  HIS165     -0.1241
     69  CA        28.8790    5.6170   23.0310 C.3   165  HIS165      0.1621
     70  C         28.9420    7.1370   22.8270 C.2   165  HIS165      0.2264
     71  O         28.0150    7.8590   23.1920 O.2   165  HIS165     -0.2867
     72  CB        27.8390    4.9860   22.0880 C.3   165  HIS165      0.0745
     73  CG        28.2440    4.9730   20.6460 C.ar  165  HIS165      0.0817
     74  ND1       29.4750    4.5220   20.2210 N.ar  165  HIS165     -0.2268
     75  CD2       27.5850    5.3750   19.5320 C.ar  165  HIS165      0.1154
     76  CE1       29.5600    4.6490   18.9080 C.ar  165  HIS165      0.1986
     77  NE2       28.4270    5.1640   18.4670 N.ar  165  HIS165     -0.2212
     78  N         34.9730    4.2730   20.2020 N.3   205  ASN205     -0.1225
     79  CA        34.6240    3.7810   18.8740 C.3   205  ASN205      0.1785
     80  C         35.8720    4.0310   18.0320 C.2   205  ASN205      0.2598
     81  O         36.9250    4.3390   18.5950 O.2   205  ASN205     -0.2718
     82  CB        33.3980    4.5100   18.3010 C.3   205  ASN205      0.1169
     83  CG        33.5470    6.0140   18.2980 C.2   205  ASN205      0.2627
     84  OD1       34.5760    6.5500   18.7030 O.2   205  ASN205     -0.2716
     85  ND2       32.5090    6.7090   17.8360 N.am  205  ASN205     -0.0877
     86  N         35.7830    3.9040   16.7070 N.am  206  SER206     -0.1938
     87  CA        36.9590    4.1080   15.8570 C.3   206  SER206      0.2040
     88  C         37.6530    5.4610   16.0280 C.2   206  SER206      0.2485
     89  O         38.8590    5.5070   16.2350 O.2   206  SER206     -0.2729
     90  CB        36.6070    3.8970   14.3780 C.3   206  SER206      0.2129
     91  OG        36.5370    2.5150   14.0730 O.3   206  SER206     -0.2179
     92  N         36.9120    6.5810   15.9190 N.am  207  PRO207     -0.2726
     93  CA        37.5860    7.8760   16.0870 C.3   207  PRO207      0.1402
     94  C         38.1680    8.0900   17.4940 C.2   207  PRO207      0.2269
     95  O         39.2870    8.5820   17.6300 O.2   207  PRO207     -0.2865
     96  CB        36.5070    8.8980   15.7310 C.3   207  PRO207      0.0296
     97  CG        35.2130    8.1740   15.9200 C.3   207  PRO207      0.0237
     98  CD        35.4760    6.7350   15.6160 C.3   207  PRO207      0.0939
     99  N         35.6140   -0.6160   20.7710 N.3   221  ARG221     -0.1245
    100  CA        34.7560   -1.1190   19.7060 C.3   221  ARG221      0.1563
    101  C         35.0340   -0.3880   18.4000 C.2   221  ARG221      0.2260
    102  O         34.5730    0.7380   18.2020 O.2   221  ARG221     -0.2867
    103  CB        33.2980   -0.9380   20.0990 C.3   221  ARG221      0.0307
    104  CG        32.9630   -1.4440   21.4830 C.3   221  ARG221      0.0489
    105  CD        31.4670   -1.3580   21.7290 C.3   221  ARG221      0.2205
    106  NE        30.9320   -0.0430   21.3800 N.pl3 221  ARG221     -0.0865
    107  CZ        31.0580    1.0400   22.1430 C.cat 221  ARG221      0.5346
    108  NH1       31.7010    0.9650   23.3030 N.pl3 221  ARG221      0.1354
    109  NH2       30.5550    2.1990   21.7410 N.pl3 221  ARG221      0.1354
    110  N         34.7390   -0.1570   14.2940 N.3   223  GLY223     -0.1210
    111  CA        33.9540   -0.5970   13.1600 C.3   223  GLY223      0.1956
    112  C         34.5780   -0.1680   11.8420 C.2   223  GLY223      0.2611
    113  O         35.3070   -0.9400   11.2130 O.2   223  GLY223     -0.2717
    114  N         34.3110    1.0730   11.4390 N.am  224  LEU224     -0.1979
    115  CA        34.8120    1.6110   10.1770 C.3   224  LEU224      0.1596
    116  C         36.2950    1.4540    9.8900 C.2   224  LEU224      0.2287
    117  O         36.6660    1.0210    8.7870 O.2   224  LEU224     -0.2864
    118  CB        34.4480    3.0910   10.0400 C.3   224  LEU224      0.0297
    119  CG        34.5340    3.6010    8.5880 C.3   224  LEU224      0.0022
    120  CD1       33.3840    3.0190    7.7890 C.3   224  LEU224      0.0001
    121  CD2       34.4810    5.1100    8.5420 C.3   224  LEU224      0.0001
    122  N         28.5680   11.0530    4.5870 N.3   356  ILE356     -0.1245
    123  CA        29.7950   10.5730    5.2140 C.3   356  ILE356      0.1561
    124  C         30.1810    9.2120    4.6590 C.2   356  ILE356      0.2260
    125  O         29.3240    8.4510    4.2110 O.2   356  ILE356     -0.2867
    126  CB        29.6430   10.4720    6.7580 C.3   356  ILE356      0.0252
    127  CG1       28.4090    9.6400    7.1220 C.3   356  ILE356      0.0019
    128  CG2       29.5150   11.8640    7.3500 C.3   356  ILE356      0.0019
    129  CD1       28.2980    9.3490    8.6040 C.3   356  ILE356      0.0001
    130  N         30.8850    6.5460    6.0300 N.3   358  TYR358     -0.1241
    131  CA        30.1890    5.4600    6.7230 C.3   358  TYR358      0.1605
    132  C         29.0090    4.9400    5.9010 C.2   358  TYR358      0.2264
    133  O         28.8160    3.7310    5.7730 O.2   358  TYR358     -0.2867
    134  CB        29.6270    5.9440    8.0640 C.3   358  TYR358      0.0534
    135  CG        30.6050    5.9970    9.2200 C.ar  358  TYR358     -0.0201
    136  CD1       30.7410    4.9170   10.0980 C.ar  358  TYR358     -0.0009
    137  CD2       31.3310    7.1540    9.4880 C.ar  358  TYR358     -0.0009
    138  CE1       31.5770    4.9960   11.2220 C.ar  358  TYR358      0.0417
    139  CE2       32.1630    7.2420   10.6030 C.ar  358  TYR358      0.0417
    140  CZ        32.2800    6.1640   11.4650 C.ar  358  TYR358      0.1957
    141  OH        33.0970    6.2680   12.5670 O.3   358  TYR358     -0.2866
@<TRIPOS>BOND
     1   125   124    2
     2    20    19    2
     3   122   123    1
     4   124   123    1
     5    19    18    1
     6   123   126    1
     7   133   132    2
     8   132   131    1
     9   130   131    1
    10    18    21    1
    11    18    17    1
    12   131   134    1
    13   126   127    1
    14   126   128    1
    15   127   129    1
    16    21    22    1
    17   120   119    1
    18   134   135    1
    19   121   119    1
    20   119   118    1
    21    22    24   ar
    22    22    23   ar
    23   117   116    2
    24    24    26   ar
    25   135   137   ar
    26   135   136   ar
    27   137   139   ar
    28    23    25   ar
    29    11    10    2
    30   116   115    1
    31   118   115    1
    32   136   138   ar
    33   115   114    1
    34    26    27   ar
    35    10     9    1
    36   139   140   ar
    37    25    27   ar
    38    27    28    1
    39   113   112    2
    40   138   140   ar
    41   114   112   am
    42   140   141    1
    43   112   111    1
    44     9     8    1
    45     9    12    1
    46     4     3    2
    47    13    12    1
    48    13    14    1
    49   111   110    1
    50    16    15    1
    51     3     2    1
    52    91    90    1
    53    15    14    1
    54    90    87    1
    55     2     1    1
    56     2     5    1
    57     6     5    1
    58     5     7    1
    59    98    92    1
    60    98    97    1
    61    96    97    1
    62    96    93    1
    63    87    88    1
    64    87    86    1
    65    92    88   am
    66    92    93    1
    67    88    89    2
    68    93    94    1
    69    86    80   am
    70    53    51    1
    71    94    95    2
    72    85    83   am
    73    80    81    2
    74    80    79    1
    75    40    42   ar
    76    40    38   ar
    77   102   101    2
    78    51    52    1
    79    51    50    2
    80    83    82    1
    81    83    84    2
    82    82    79    1
    83   101   100    1
    84    77    76   ar
    85    77    75   ar
    86    37    38   ar
    87    37    35   ar
    88    49    50    1
    89    49    48    1
    90    42    41   ar
    91    79    78    1
    92    38    36   ar
    93    76    74   ar
    94    75    73   ar
    95    35    34   ar
    96    48    47    1
    97   100   103    1
    98   100    99    1
    99    41    39   ar
   100    36    34   ar
   101    36    39   ar
   102   103   104    1
   103    74    73   ar
   104    34    33    1
   105    73    72    1
   106    29    30    1
   107    47    44    1
   108    31    30    1
   109    31    32    2
   110   106   105    1
   111   106   107    2
   112   104   105    1
   113    30    33    1
   114    44    43    1
   115    44    45    1
   116   109   107    1
   117    72    69    1
   118   107   108    1
   119    45    46    2
   120    70    69    1
   121    70    71    2
   122    69    68    1
   123    66    67   ar
   124    66    64   ar
   125    67    65   ar
   126    64    61   ar
   127    65    63   ar
   128    61    63   ar
   129    61    59   ar
   130    63    62   ar
   131    62    60   ar
   132    59    58    1
   133    59    60   ar
   134    58    55    1
   135    56    55    1
   136    56    57    2
   137    55    54    1
