@<TRIPOS>MOLECULE
tmp/1vfuA00.pdb
 175 168 0 0 0
SMALL
GASTEIGER

@<TRIPOS>ATOM
      1  N         36.0870   70.1430   65.2780 N.3   164  HIS164     -0.1241
      2  CA        36.5390   68.8850   65.8310 C.3   164  HIS164      0.1621
      3  C         36.6610   68.8300   67.3730 C.2   164  HIS164      0.2264
      4  O         36.8360   67.7420   67.9040 O.2   164  HIS164     -0.2867
      5  CB        37.9020   68.5080   65.1850 C.3   164  HIS164      0.0745
      6  CG        37.8070   67.9600   63.7850 C.ar  164  HIS164      0.0817
      7  ND1       37.2380   66.7390   63.4910 N.ar  164  HIS164     -0.2268
      8  CD2       38.2350   68.4700   62.6050 C.ar  164  HIS164      0.1154
      9  CE1       37.3190   66.5230   62.1890 C.ar  164  HIS164      0.1986
     10  NE2       37.9200   67.5560   61.6290 N.ar  164  HIS164     -0.2212
     11  N         33.4630   60.9740   70.3900 N.3   202  HIS202     -0.1241
     12  CA        32.5570   60.2030   69.5410 C.3   202  HIS202      0.1621
     13  C         32.1280   58.9120   70.2260 C.2   202  HIS202      0.2264
     14  O         31.0620   58.3640   69.9340 O.2   202  HIS202     -0.2867
     15  CB        33.2160   59.9010   68.1930 C.3   202  HIS202      0.0745
     16  CG        34.6650   59.5460   68.2940 C.ar  202  HIS202      0.0817
     17  ND1       35.1120   58.4080   68.9310 N.ar  202  HIS202     -0.2268
     18  CD2       35.7710   60.1780   67.8320 C.ar  202  HIS202      0.1154
     19  CE1       36.4300   58.3540   68.8560 C.ar  202  HIS202      0.1986
     20  NE2       36.8550   59.4160   68.1940 N.ar  202  HIS202     -0.2212
     21  N         33.6610   55.9380   70.0900 N.3   204  TYR204     -0.1241
     22  CA        33.8500   54.7590   69.2610 C.3   204  TYR204      0.1605
     23  C         34.9490   53.8650   69.8260 C.2   204  TYR204      0.2264
     24  O         35.1040   52.7190   69.4160 O.2   204  TYR204     -0.2867
     25  CB        34.1410   55.1740   67.8140 C.3   204  TYR204      0.0534
     26  CG        32.8700   55.3810   67.0120 C.ar  204  TYR204     -0.0201
     27  CD1       32.0430   54.3040   66.6990 C.ar  204  TYR204     -0.0009
     28  CD2       32.4650   56.6520   66.6080 C.ar  204  TYR204     -0.0009
     29  CE1       30.8440   54.4840   66.0060 C.ar  204  TYR204      0.0417
     30  CE2       31.2600   56.8420   65.9150 C.ar  204  TYR204      0.0417
     31  CZ        30.4600   55.7520   65.6210 C.ar  204  TYR204      0.1957
     32  OH        29.2740   55.9230   64.9490 O.3   204  TYR204     -0.2866
     33  N         36.8110   46.5740   67.1650 N.3   244  HIS244     -0.1241
     34  CA        37.9130   47.0330   67.9990 C.3   244  HIS244      0.1621
     35  C         37.3650   47.5950   69.3080 C.2   244  HIS244      0.2264
     36  O         36.1440   47.7720   69.4600 O.2   244  HIS244     -0.2867
     37  CB        38.7210   48.1100   67.2740 C.3   244  HIS244      0.0745
     38  CG        37.9930   49.4070   67.1150 C.ar  244  HIS244      0.0817
     39  ND1       37.7990   50.2820   68.1610 N.ar  244  HIS244     -0.2268
     40  CD2       37.4010   49.9740   66.0380 C.ar  244  HIS244      0.1154
     41  CE1       37.1200   51.3320   67.7360 C.ar  244  HIS244      0.1986
     42  NE2       36.8670   51.1710   66.4500 N.ar  244  HIS244     -0.2212
     43  N         42.1760   48.8550   64.2990 N.3   286  PHE286     -0.1227
     44  CA        41.0720   48.7540   63.3400 C.3   286  PHE286      0.1736
     45  C         41.3060   49.4640   61.9960 C.2   286  PHE286      0.2595
     46  O         40.8530   48.9910   60.9470 O.2   286  PHE286     -0.2718
     47  CB        39.7690   49.2760   63.9690 C.3   286  PHE286      0.0547
     48  CG        39.4200   50.6990   63.5880 C.ar  286  PHE286     -0.0202
     49  CD1       40.0540   51.7800   64.1930 C.ar  286  PHE286     -0.0042
     50  CD2       38.4500   50.9520   62.6180 C.ar  286  PHE286     -0.0042
     51  CE1       39.7260   53.0930   63.8380 C.ar  286  PHE286     -0.0003
     52  CE2       38.1170   52.2580   62.2570 C.ar  286  PHE286     -0.0003
     53  CZ        38.7550   53.3280   62.8670 C.ar  286  PHE286     -0.0000
     54  N         42.0070   50.5950   62.0310 N.am  287  ALA287     -0.1980
     55  CA        42.2760   51.3660   60.8220 C.3   287  ALA287      0.1597
     56  C         43.6710   51.1050   60.2420 C.2   287  ALA287      0.2287
     57  O         44.1610   49.9710   60.2500 O.2   287  ALA287     -0.2864
     58  CB        42.0940   52.8590   61.1120 C.3   287  ALA287      0.0319
     59  N         45.6380   53.6720   63.9080 N.3   290  VAL290     -0.1245
     60  CA        45.0430   54.4850   64.9800 C.3   290  VAL290      0.1561
     61  C         45.4220   53.9190   66.3540 C.2   290  VAL290      0.2260
     62  O         45.1410   52.7620   66.6600 O.2   290  VAL290     -0.2867
     63  CB        43.4830   54.5240   64.8820 C.3   290  VAL290      0.0252
     64  CG1       42.9010   55.2520   66.0870 C.3   290  VAL290      0.0019
     65  CG2       43.0450   55.2140   63.5900 C.3   290  VAL290      0.0019
     66  N         42.7100   52.6080   69.2800 N.3   293  MET293     -0.1245
     67  CA        41.8420   51.5040   68.8960 C.3   293  MET293      0.1570
     68  C         42.5110   50.1720   68.5160 C.2   293  MET293      0.2261
     69  O         42.8280   49.9310   67.3510 O.2   293  MET293     -0.2867
     70  CB        40.9010   51.9880   67.7710 C.3   293  MET293      0.0387
     71  CG        39.9040   53.0790   68.2320 C.3   293  MET293      0.0595
     72  SD        38.7200   53.7230   67.0020 S.3   293  MET293     -0.1393
     73  CE        38.5830   55.4350   67.4950 C.3   293  MET293      0.0692
     74  N         23.1420   47.6690   65.6400 N.3   323  ARG323     -0.1245
     75  CA        23.6480   48.2030   64.3850 C.3   323  ARG323      0.1563
     76  C         25.0940   47.7620   64.5280 C.2   323  ARG323      0.2260
     77  O         25.8260   48.2740   65.3800 O.2   323  ARG323     -0.2867
     78  CB        23.5800   49.7240   64.3670 C.3   323  ARG323      0.0307
     79  CG        23.5920   50.3220   62.9940 C.3   323  ARG323      0.0489
     80  CD        24.7970   49.8590   62.2430 C.3   323  ARG323      0.2205
     81  NE        25.9770   50.6690   62.5210 N.pl3 323  ARG323     -0.0865
     82  CZ        26.2100   51.8510   61.9670 C.cat 323  ARG323      0.5346
     83  NH1       27.3150   52.5130   62.2760 N.pl3 323  ARG323      0.1354
     84  NH2       25.3380   52.3650   61.1060 N.pl3 323  ARG323      0.1354
     85  N         28.7440   47.7730   64.0050 N.3   325  ASN325     -0.1225
     86  CA        29.7940   48.6840   63.5590 C.3   325  ASN325      0.1785
     87  C         30.9750   47.9400   62.9340 C.2   325  ASN325      0.2597
     88  O         31.5800   47.0840   63.5870 O.2   325  ASN325     -0.2718
     89  CB        30.2460   49.5130   64.7650 C.3   325  ASN325      0.1169
     90  CG        30.9200   50.8040   64.3710 C.2   325  ASN325      0.2627
     91  OD1       32.1550   50.8830   64.2910 O.2   325  ASN325     -0.2716
     92  ND2       30.1090   51.8350   64.1150 N.am  325  ASN325     -0.0877
     93  N         31.2960   48.2810   61.6790 N.am  326  VAL326     -0.1980
     94  CA        32.3940   47.6500   60.9160 C.3   326  VAL326      0.1595
     95  C         32.3010   46.1190   60.9800 C.2   326  VAL326      0.2287
     96  O         33.2930   45.4140   61.1740 O.2   326  VAL326     -0.2864
     97  CB        33.7850   48.0920   61.4340 C.3   326  VAL326      0.0276
     98  CG1       34.8800   47.5590   60.5130 C.3   326  VAL326      0.0022
     99  CG2       33.8540   49.5990   61.5080 C.3   326  VAL326      0.0022
    100  N         34.3820   42.8390   59.5140 N.3   329  GLU329     -0.1245
    101  CA        35.7170   42.4860   59.9800 C.3   329  GLU329      0.1567
    102  C         35.7910   41.5370   61.1690 C.2   329  GLU329      0.2260
    103  O         36.7960   41.4930   61.8880 O.2   329  GLU329     -0.2867
    104  CB        36.5200   43.7410   60.2510 C.3   329  GLU329      0.0388
    105  CG        36.9780   44.3700   58.9730 C.3   329  GLU329      0.1160
    106  CD        37.8190   45.5880   59.2010 C.2   329  GLU329      0.3649
    107  OE1       38.8150   45.4890   59.9640 O.co2 329  GLU329     -0.2457
    108  OE2       37.4790   46.6360   58.6080 O.co2 329  GLU329     -0.2457
    109  N         26.8410   47.0200   59.0390 N.3   354  GLU354     -0.1245
    110  CA        27.4130   48.1540   58.3190 C.3   354  GLU354      0.1567
    111  C         28.6130   47.7210   57.4750 C.2   354  GLU354      0.2260
    112  O         29.7380   47.7130   57.9640 O.2   354  GLU354     -0.2867
    113  CB        27.8620   49.2260   59.3070 C.3   354  GLU354      0.0388
    114  CG        28.6440   50.3730   58.6670 C.3   354  GLU354      0.1160
    115  CD        29.8830   50.7360   59.4650 C.2   354  GLU354      0.3649
    116  OE1       29.7490   51.3050   60.5720 O.co2 354  GLU354     -0.2457
    117  OE2       30.9990   50.4370   58.9890 O.co2 354  GLU354     -0.2457
    118  N         30.6770   48.3250   53.7390 N.3   356  TRP356     -0.1241
    119  CA        30.7520   49.2680   52.6350 C.3   356  TRP356      0.1605
    120  C         31.0930   48.7190   51.2470 C.2   356  TRP356      0.2264
    121  O         31.5590   49.4630   50.3860 O.2   356  TRP356     -0.2867
    122  CB        31.6770   50.4290   53.0030 C.3   356  TRP356      0.0550
    123  CG        30.9420   51.7680   53.0690 C.ar  356  TRP356      0.0003
    124  CD1       31.1960   52.8860   52.3060 C.ar  356  TRP356      0.0946
    125  CD2       29.8380   52.1230   53.9310 C.ar  356  TRP356      0.0152
    126  NE1       30.3260   53.9030   52.6430 N.ar  356  TRP356     -0.2442
    127  CE2       29.4840   53.4630   53.6330 C.ar  356  TRP356      0.0810
    128  CE3       29.1170   51.4430   54.9190 C.ar  356  TRP356      0.0012
    129  CZ2       28.4420   54.1270   54.2910 C.ar  356  TRP356      0.0191
    130  CZ3       28.0810   52.1060   55.5730 C.ar  356  TRP356      0.0001
    131  CH2       27.7560   53.4320   55.2540 C.ar  356  TRP356      0.0015
    132  N         26.5190   61.2260   60.3350 N.3   420  HIS420     -0.1226
    133  CA        27.3190   62.2020   61.0500 C.3   420  HIS420      0.1752
    134  C         28.6580   62.3020   60.3480 C.2   420  HIS420      0.2596
    135  O         29.4150   63.2380   60.5700 O.2   420  HIS420     -0.2718
    136  CB        27.5210   61.7560   62.4890 C.3   420  HIS420      0.0759
    137  CG        27.8320   60.3000   62.6320 C.ar  420  HIS420      0.0818
    138  ND1       27.0560   59.3140   62.0610 N.ar  420  HIS420     -0.2268
    139  CD2       28.8040   59.6600   63.3250 C.ar  420  HIS420      0.1154
    140  CE1       27.5340   58.1300   62.4000 C.ar  420  HIS420      0.1986
    141  NE2       28.5940   58.3110   63.1680 N.ar  420  HIS420     -0.2212
    142  N         28.9240   61.3220   59.4880 N.am  421  ASN421     -0.1974
    143  CA        30.1650   61.2270   58.7260 C.3   421  ASN421      0.1688
    144  C         30.0470   61.8530   57.3420 C.2   421  ASN421      0.2292
    145  O         30.9200   61.6570   56.4940 O.2   421  ASN421     -0.2864
    146  CB        30.5580   59.7570   58.5620 C.3   421  ASN421      0.1181
    147  CG        31.0660   59.1330   59.8480 C.2   421  ASN421      0.2629
    148  OD1       31.0690   57.9070   59.9910 O.2   421  ASN421     -0.2716
    149  ND2       31.5120   59.9710   60.7910 N.am  421  ASN421     -0.0877
    150  N         30.4130   67.8050   56.3250 N.3   464  THR464     -0.1203
    151  CA        30.8020   66.5720   57.0570 C.3   464  THR464      0.1994
    152  C         31.4220   66.9680   58.4180 C.2   464  THR464      0.2617
    153  O         31.6330   68.1690   58.6140 O.2   464  THR464     -0.2717
    154  CB        31.8350   65.7580   56.2000 C.3   464  THR464      0.1784
    155  OG1       31.2840   65.4590   54.9030 O.3   464  THR464     -0.2211
    156  CG2       32.2100   64.4390   56.8710 C.3   464  THR464      0.0376
    157  N         31.7260   66.0360   59.3530 N.am  465  ASP465     -0.1973
    158  CA        32.2560   66.4990   60.6490 C.3   465  ASP465      0.1709
    159  C         33.3910   67.5060   60.5140 C.2   465  ASP465      0.2293
    160  O         34.3290   67.3340   59.7510 O.2   465  ASP465     -0.2864
    161  CB        32.6740   65.4060   61.6980 C.3   465  ASP465      0.1436
    162  CG        33.2960   64.1770   61.1110 C.2   465  ASP465      0.3671
    163  OD1       34.0800   64.2750   60.1470 O.co2 465  ASP465     -0.2456
    164  OD2       32.9920   63.0460   61.6410 O.co2 465  ASP465     -0.2456
    165  N         27.3650   67.8890   62.4290 N.3   469  ARG469     -0.1245
    166  CA        27.0740   67.5840   63.8210 C.3   469  ARG469      0.1563
    167  C         26.7210   68.8560   64.6240 C.2   469  ARG469      0.2260
    168  O         27.2100   69.0680   65.7320 O.2   469  ARG469     -0.2867
    169  CB        28.2870   66.8980   64.4390 C.3   469  ARG469      0.0307
    170  CG        28.6700   65.5850   63.8030 C.3   469  ARG469      0.0489
    171  CD        29.9700   65.1150   64.4080 C.3   469  ARG469      0.2205
    172  NE        30.2690   63.7180   64.1190 N.pl3 469  ARG469     -0.0865
    173  CZ        31.4100   63.1200   64.4520 C.cat 469  ARG469      0.5346
    174  NH1       32.3590   63.8010   65.0820 N.pl3 469  ARG469      0.1354
    175  NH2       31.6040   61.8420   64.1580 N.pl3 469  ARG469      0.1354
@<TRIPOS>BOND
     1   121   120    2
     2   120   119    1
     3   124   126   ar
     4   124   123   ar
     5   119   122    1
     6   119   118    1
     7   126   127   ar
     8   122   123    1
     9   123   125   ar
    10   127   125   ar
    11   127   129   ar
    12   125   128   ar
    13   129   131   ar
    14   155   154    1
    15   128   130   ar
    16   131   130   ar
    17   154   156    1
    18   154   151    1
    19   150   151    1
    20   145   144    2
    21   151   152    1
    22   144   143    1
    23   111   112    2
    24   111   110    1
    25   110   109    1
    26   110   113    1
    27   152   153    2
    28   152   157   am
    29   146   143    1
    30   146   147    1
    31   108   106   ar
    32   114   113    1
    33   114   115    1
    34   143   142    1
    35   105   106    1
    36   105   104    1
    37   117   115   ar
    38   106   107   ar
    39   157   158    1
    40   115   116   ar
    41   142   134   am
    42   100   101    1
    43   160   159    2
    44   147   148    2
    45   147   149   am
    46   101   104    1
    47   101   102    1
    48   163   162   ar
    49    56    57    2
    50    56    55    1
    51   132   133    1
    52   134   135    2
    53   134   133    1
    54    98    97    1
    55   159   158    1
    56   158   161    1
    57    55    58    1
    58    55    54    1
    59    94    95    1
    60    94    97    1
    61    94    93    1
    62    46    45    2
    63    95    96    2
    64   133   136    1
    65    84    82    1
    66   162   164   ar
    67   162   161    1
    68   102   103    2
    69    97    99    1
    70    10     9   ar
    71    10     8   ar
    72    93    87   am
    73    82    83    1
    74    82    81    2
    75    45    54   am
    76    45    44    1
    77   138   140   ar
    78   138   137   ar
    79     9     7   ar
    80    80    81    1
    81    80    79    1
    82    52    50   ar
    83    52    53   ar
    84   140   141   ar
    85   165   166    1
    86   136   137    1
    87     8     6   ar
    88    50    48   ar
    89   137   139   ar
    90    53    51   ar
    91    87    86    1
    92    87    88    2
    93    79    78    1
    94   141   139   ar
    95    44    47    1
    96    44    43    1
    97     7     6   ar
    98    86    85    1
    99    86    89    1
   100    48    47    1
   101    48    49   ar
   102    65    63    1
   103     6     5    1
   104   170   171    1
   105   170   169    1
   106   166   169    1
   107   166   167    1
   108    51    49   ar
   109    59    60    1
   110    92    90   am
   111   172   171    1
   112   172   173    2
   113   175   173    1
   114    91    90    2
   115    78    75    1
   116    90    89    1
   117    75    76    1
   118    75    74    1
   119   173   174    1
   120    76    77    2
   121   167   168    2
   122    63    60    1
   123    63    64    1
   124    32    31    1
   125    60    61    1
   126     5     2    1
   127     1     2    1
   128    31    30   ar
   129    31    29   ar
   130     2     3    1
   131    30    28   ar
   132    29    27   ar
   133    40    42   ar
   134    40    38   ar
   135    61    62    2
   136    42    41   ar
   137    28    26   ar
   138    27    26   ar
   139    72    73    1
   140    72    71    1
   141    26    25    1
   142    38    37    1
   143    38    39   ar
   144    33    34    1
   145    37    34    1
   146    69    68    2
   147     3     4    2
   148    41    39   ar
   149    70    71    1
   150    70    67    1
   151    25    22    1
   152    18    20   ar
   153    18    16   ar
   154    34    35    1
   155    15    16    1
   156    15    12    1
   157    20    19   ar
   158    16    17   ar
   159    68    67    1
   160    19    17   ar
   161    67    66    1
   162    22    23    1
   163    22    21    1
   164    35    36    2
   165    24    23    2
   166    12    13    1
   167    12    11    1
   168    14    13    2
