@<TRIPOS>MOLECULE
tmp/1vfvA00.pdb
 152 143 0 0 0
SMALL
GASTEIGER

@<TRIPOS>ATOM
      1  N          5.4170   25.3960    6.5240 N.3     9  ARG9       -0.1245
      2  CA         5.5180   24.0410    5.9860 C.3     9  ARG9        0.1563
      3  C          4.6210   23.8760    4.7780 C.2     9  ARG9        0.2260
      4  O          3.4260   24.1390    4.8490 O.2     9  ARG9       -0.2867
      5  CB         5.1370   23.0150    7.0600 C.3     9  ARG9        0.0307
      6  CG         5.3100   21.5730    6.5580 C.3     9  ARG9        0.0489
      7  CD         4.8850   20.5540    7.6030 C.3     9  ARG9        0.2205
      8  NE         5.4800   19.2440    7.3510 N.pl3   9  ARG9       -0.0865
      9  CZ         5.1900   18.1530    8.0550 C.cat   9  ARG9        0.5346
     10  NH1        4.3070   18.2200    9.0430 N.pl3   9  ARG9        0.1354
     11  NH2        5.8050   17.0030    7.7910 N.pl3   9  ARG9        0.1354
     12  N          2.9790   21.3540    1.9940 N.3    11  ARG11      -0.1231
     13  CA         2.5880   19.9480    1.8170 C.3    11  ARG11       0.1679
     14  C          2.5250   19.5100    0.3620 C.2    11  ARG11       0.2434
     15  O          2.7250   20.3050   -0.5550 O.2    11  ARG11      -0.2733
     16  CB         1.2070   19.7300    2.4490 C.3    11  ARG11       0.0321
     17  CG         0.0840   20.5470    1.7820 C.3    11  ARG11       0.0489
     18  CD        -1.3070   19.9050    1.9950 C.3    11  ARG11       0.2205
     19  NE        -2.4180   20.7760    1.5940 N.pl3  11  ARG11      -0.0865
     20  CZ        -2.7360   21.0930    0.3470 C.cat  11  ARG11       0.5346
     21  NH1       -2.0460   20.6140   -0.6770 N.pl3  11  ARG11       0.1354
     22  NH2       -3.7640   21.9050    0.1190 N.pl3  11  ARG11       0.1354
     23  N          2.2560   18.2080    0.1260 N.am   12  PRO12      -0.2729
     24  CA         2.1600   17.6930   -1.2370 C.3    12  PRO12       0.1401
     25  C          0.8230   18.1590   -1.8060 C.2    12  PRO12       0.2269
     26  O         -0.0230   18.6300   -1.0560 O.2    12  PRO12      -0.2865
     27  CB         2.1880   16.1700   -1.0390 C.3    12  PRO12       0.0296
     28  CG         2.9280   16.0010    0.2710 C.3    12  PRO12       0.0237
     29  CD         2.3340   17.1020    1.1010 C.3    12  PRO12       0.0939
     30  N         -2.9510   18.0750   -3.0930 N.3    14  ASN14      -0.1240
     31  CA        -4.0770   17.2710   -2.6320 C.3    14  ASN14       0.1653
     32  C         -4.8740   16.9080   -3.8800 C.2    14  ASN14       0.2266
     33  O         -4.5110   17.3080   -4.9860 O.2    14  ASN14      -0.2867
     34  CB        -4.9440   18.0300   -1.6070 C.3    14  ASN14       0.1155
     35  CG        -5.5380   19.3310   -2.1690 C.2    14  ASN14       0.2627
     36  OD1       -5.6190   19.5220   -3.3780 O.2    14  ASN14      -0.2716
     37  ND2       -5.9710   20.2090   -1.2760 N.am   14  ASN14      -0.0877
     38  N          7.8940   19.8960    2.6340 N.3    56  SER56      -0.1217
     39  CA         7.2520   18.5830    2.7230 C.3    56  SER56       0.1889
     40  C          6.3390   18.3720    1.5370 C.2    56  SER56       0.2288
     41  O          5.3140   17.7060    1.6460 O.2    56  SER56      -0.2866
     42  CB         6.4450   18.4800    4.0180 C.3    56  SER56       0.2089
     43  OG         7.2570   18.7320    5.1480 O.3    56  SER56      -0.2183
     44  N         13.3370   16.4210    2.0390 N.3    65  TYR65      -0.1241
     45  CA        12.0040   16.3770    2.6040 C.3    65  TYR65       0.1605
     46  C         12.0230   16.5540    4.1120 C.2    65  TYR65       0.2264
     47  O         12.9440   16.0950    4.7950 O.2    65  TYR65      -0.2867
     48  CB        11.3380   15.0500    2.2320 C.3    65  TYR65       0.0534
     49  CG         9.9220   14.9010    2.7300 C.ar   65  TYR65      -0.0201
     50  CD1        9.6470   14.3110    3.9600 C.ar   65  TYR65      -0.0009
     51  CD2        8.8510   15.3510    1.9570 C.ar   65  TYR65      -0.0009
     52  CE1        8.3290   14.1710    4.4090 C.ar   65  TYR65       0.0417
     53  CE2        7.5410   15.2190    2.3900 C.ar   65  TYR65       0.0417
     54  CZ         7.2820   14.6330    3.6160 C.ar   65  TYR65       0.1957
     55  OH         5.9790   14.5380    4.0560 O.3    65  TYR65      -0.2866
     56  N         -7.6570   26.4370    4.9840 N.3    97  THR97      -0.1203
     57  CA        -8.3560   25.1730    5.1430 C.3    97  THR97       0.1994
     58  C         -7.6480   24.1140    4.2810 C.2    97  THR97       0.2618
     59  O         -7.3600   24.3490    3.1030 O.2    97  THR97      -0.2717
     60  CB        -9.8170   25.3090    4.6780 C.3    97  THR97       0.1784
     61  OG1      -10.4680   26.3300    5.4470 O.3    97  THR97      -0.2211
     62  CG2      -10.5600   23.9870    4.8660 C.3    97  THR97       0.0376
     63  N         -7.3430   22.9660    4.8800 N.am   98  GLY98      -0.1942
     64  CA        -6.6870   21.8900    4.1500 C.3    98  GLY98       0.2014
     65  C         -5.1960   22.0320    3.8960 C.2    98  GLY98       0.2639
     66  O         -4.5950   21.1700    3.2550 O.2    98  GLY98      -0.2714
     67  N         -4.5750   23.0940    4.4090 N.am   99  ALA99      -0.1963
     68  CA        -3.1500   23.3260    4.1720 C.3    99  ALA99       0.1728
     69  C         -2.2030   22.3540    4.8900 C.2    99  ALA99       0.2617
     70  O         -1.0460   22.2380    4.5130 O.2    99  ALA99      -0.2715
     71  CB        -2.7910   24.7900    4.5380 C.3    99  ALA99       0.0334
     72  N         -2.6910   21.6880    5.9280 N.am  100  GLY100     -0.1940
     73  CA        -1.8940   20.7250    6.6720 C.3   100  GLY100      0.2014
     74  C         -1.6600   20.9970    8.1350 C.2   100  GLY100      0.2639
     75  O         -0.6720   20.5270    8.6890 O.2   100  GLY100     -0.2714
     76  N         -2.5580   21.7490    8.7720 N.am  101  LYS101     -0.1963
     77  CA        -2.4270   22.0790   10.1810 C.3   101  LYS101      0.1728
     78  C         -2.5350   20.8450   11.0920 C.2   101  LYS101      0.2617
     79  O         -1.6800   20.6250   11.9510 O.2   101  LYS101     -0.2715
     80  CB        -3.4950   23.1140   10.5850 C.3   101  LYS101      0.0311
     81  CG        -3.4180   24.4480    9.8180 C.3   101  LYS101      0.0038
     82  CD        -4.5940   25.3730   10.1670 C.3   101  LYS101      0.0206
     83  CE        -5.9410   24.7520    9.7880 C.3   101  LYS101      0.1093
     84  NZ        -6.1260   24.6360    8.3200 N.3   101  LYS101     -0.1314
     85  N         -3.6030   20.0600   10.9130 N.am  102  SER102     -0.1936
     86  CA        -3.8210   18.8510   11.7250 C.3   102  SER102      0.2055
     87  C         -2.7620   17.7690   11.4870 C.2   102  SER102      0.2643
     88  O         -2.3520   17.0980   12.4190 O.2   102  SER102     -0.2714
     89  CB        -5.2040   18.2620   11.4320 C.3   102  SER102      0.2130
     90  OG        -6.2220   19.1560   11.8480 O.3   102  SER102     -0.2179
     91  N         -2.3400   17.6000   10.2510 N.am  103  TYR103     -0.1959
     92  CA        -1.3230   16.6030    9.9430 C.3   103  TYR103      0.1771
     93  C         -0.0610   16.9530   10.7270 C.2   103  TYR103      0.2620
     94  O          0.6050   16.0800   11.2980 O.2   103  TYR103     -0.2715
     95  CB        -1.0210   16.5960    8.4470 C.3   103  TYR103      0.0574
     96  CG         0.0350   15.5810    8.0500 C.ar  103  TYR103     -0.0198
     97  CD1       -0.3140   14.2540    7.7580 C.ar  103  TYR103     -0.0009
     98  CD2        1.3850   15.9350    8.0020 C.ar  103  TYR103     -0.0009
     99  CE1        0.6600   13.3120    7.4330 C.ar  103  TYR103      0.0417
    100  CE2        2.3600   15.0020    7.6790 C.ar  103  TYR103      0.0417
    101  CZ         1.9900   13.6940    7.3990 C.ar  103  TYR103      0.1957
    102  OH         2.9840   12.7950    7.1100 O.3   103  TYR103     -0.2866
    103  N          0.2660   18.2460   10.7770 N.am  104  THR104     -0.1951
    104  CA         1.4570   18.6780   11.5010 C.3   104  THR104      0.1897
    105  C          1.3390   18.5480   13.0080 C.2   104  THR104      0.2313
    106  O          2.2800   18.1080   13.6680 O.2   104  THR104     -0.2863
    107  CB         1.8250   20.1390   11.1380 C.3   104  THR104      0.1794
    108  OG1        2.0940   20.2170    9.7420 O.3   104  THR104     -0.2208
    109  CG2        3.0440   20.5990   11.9120 C.3   104  THR104      0.0378
    110  N         -0.9760   11.1300   11.9260 N.3   108  LYS108     -0.1245
    111  CA        -1.7840    9.9470   11.9810 C.3   108  LYS108      0.1561
    112  C         -1.1880    9.0280   13.0150 C.2   108  LYS108      0.2260
    113  O          0.0220    8.9390   13.1810 O.2   108  LYS108     -0.2867
    114  CB        -1.7500    9.2830   10.6030 C.3   108  LYS108      0.0271
    115  CG        -2.3020   10.1950    9.5060 C.3   108  LYS108      0.0035
    116  CD        -2.3590    9.5020    8.1430 C.3   108  LYS108      0.0206
    117  CE        -2.9470   10.4040    7.0520 C.3   108  LYS108      0.1093
    118  NZ        -2.8770    9.7260    5.7580 N.3   108  LYS108     -0.1314
    119  N          3.7690    8.5380   10.8300 N.3   113  GLN113     -0.1245
    120  CA         3.2040    9.8910   10.5750 C.3   113  GLN113      0.1566
    121  C          2.6350   10.6340   11.8250 C.2   113  GLN113      0.2260
    122  O          1.8710   11.5850   11.7200 O.2   113  GLN113     -0.2867
    123  CB         2.1180    9.7570    9.5060 C.3   113  GLN113      0.0367
    124  CG         2.6870    9.3530    8.1450 C.3   113  GLN113      0.0905
    125  CD         1.6190    8.6490    7.3410 C.2   113  GLN113      0.2608
    126  OE1        1.0200    9.1830    6.4220 O.2   113  GLN113     -0.2717
    127  NE2        1.3820    7.3840    7.7400 N.am  113  GLN113     -0.0878
    128  N        -15.3360   18.7600    3.5190 N.3   204  THR204     -0.1218
    129  CA       -15.0320   18.5770    4.9330 C.3   204  THR204      0.1862
    130  C        -14.0820   19.6600    5.4500 C.2   204  THR204      0.2287
    131  O        -12.8840   19.4540    5.5960 O.2   204  THR204     -0.2866
    132  CB       -14.3970   17.1980    5.1100 C.3   204  THR204      0.1770
    133  OG1      -13.1450   17.0040    4.4490 O.3   204  THR204     -0.2211
    134  CG2      -15.4930   16.4910    4.3080 C.3   204  THR204      0.0375
    135  N        -13.0600   22.1420    8.5100 N.3   206  SER206     -0.1217
    136  CA       -13.2720   22.3430    9.9390 C.3   206  SER206      0.1889
    137  C        -13.4220   23.8260   10.2840 C.2   206  SER206      0.2288
    138  O        -12.6730   24.6770    9.8220 O.2   206  SER206     -0.2866
    139  CB       -12.0750   21.7530   10.6860 C.3   206  SER206      0.2089
    140  OG       -11.0410   22.7340   10.5970 O.3   206  SER206     -0.2183
    141  N         -5.6520   25.1060   14.9810 N.3   240  LEU240     -0.1245
    142  CA        -6.6980   26.0390   14.5500 C.3   240  LEU240      0.1561
    143  C         -7.5040   25.6040   13.3410 C.2   240  LEU240      0.2260
    144  O         -7.0680   24.7690   12.5510 O.2   240  LEU240     -0.2867
    145  CB        -6.0670   27.4030   14.2340 C.3   240  LEU240      0.0270
    146  CG        -5.2800   28.1100   15.3390 C.3   240  LEU240      0.0019
    147  CD1       -4.6170   29.3360   14.7340 C.3   240  LEU240      0.0001
    148  CD2       -6.1790   28.4890   16.5000 C.3   240  LEU240      0.0001
    149  N         -9.1600   26.3150    9.6780 N.3   242  GLY242     -0.1225
    150  CA        -8.4950   27.0130    8.6020 C.3   242  GLY242      0.1811
    151  C         -9.1490   28.3230    8.2180 C.2   242  GLY242      0.2280
    152  O        -10.3480   28.4980    8.4390 O.2   242  GLY242     -0.2866
@<TRIPOS>BOND
     1    33    32    2
     2    32    31    1
     3    36    35    2
     4    30    31    1
     5    31    34    1
     6    35    34    1
     7    35    37   am
     8    25    24    1
     9    25    26    2
    10    24    27    1
    11    24    23    1
    12    27    28    1
    13    21    20    1
    14    15    14    2
    15    22    20    1
    16    23    14   am
    17    23    29    1
    18    28    29    1
    19    20    19    2
    20    14    13    1
    21    40    41    2
    22    40    39    1
    23    19    18    1
    24    17    18    1
    25    17    16    1
    26    13    12    1
    27    13    16    1
    28    51    53   ar
    29    51    49   ar
    30    44    45    1
    31    48    45    1
    32    48    49    1
    33    53    54   ar
    34    45    46    1
    35    38    39    1
    36    39    42    1
    37    49    50   ar
    38    59    58    2
    39    66    65    2
    40   128   129    1
    41    54    55    1
    42    54    52   ar
    43    65    64    1
    44    65    67   am
    45    50    52   ar
    46    42    43    1
    47    46    47    2
    48    64    63    1
    49    68    67    1
    50    68    71    1
    51    68    69    1
    52    58    63   am
    53    58    57    1
    54   134   132    1
    55   133   132    1
    56    70    69    2
    57    60    62    1
    58    60    57    1
    59    60    61    1
    60     3     4    2
    61     3     2    1
    62    69    72   am
    63   129   132    1
    64   129   130    1
    65    56    57    1
    66   130   131    2
    67   118   117    1
    68    72    73    1
    69     2     1    1
    70     2     5    1
    71   126   125    2
    72     6     5    1
    73     6     7    1
    74    73    74    1
    75   117   116    1
    76   102   101    1
    77   125   127   am
    78   125   124    1
    79     8     7    1
    80     8     9    2
    81   101    99   ar
    82   101   100   ar
    83    99    97   ar
    84   100    98   ar
    85    97    96   ar
    86    11     9    1
    87    98    96   ar
    88    96    95    1
    89     9    10    1
    90    74    75    2
    91    74    76   am
    92   116   115    1
    93   124   123    1
    94   151   152    2
    95   151   150    1
    96    84    83    1
    97    95    92    1
    98   135   136    1
    99   150   149    1
   100    76    77    1
   101   123   120    1
   102   115   114    1
   103   108   107    1
   104    83    82    1
   105    81    82    1
   106    81    80    1
   107   138   137    2
   108   136   137    1
   109   136   139    1
   110    92    91    1
   111    92    93    1
   112    77    80    1
   113    77    78    1
   114    91    87   am
   115   120   119    1
   116   120   121    1
   117   140   139    1
   118   114   111    1
   119    93   103   am
   120    93    94    2
   121   103   104    1
   122    85    78   am
   123    85    86    1
   124    78    79    2
   125   107   104    1
   126   107   109    1
   127    89    86    1
   128    89    90    1
   129    87    86    1
   130    87    88    2
   131   104   105    1
   132   122   121    2
   133   110   111    1
   134   111   112    1
   135   144   143    2
   136   105   106    2
   137   112   113    2
   138   143   142    1
   139   145   142    1
   140   145   146    1
   141   142   141    1
   142   147   146    1
   143   146   148    1
