@<TRIPOS>MOLECULE
tmp/1vfwA00.pdb
 151 143 0 0 0
SMALL
GASTEIGER

@<TRIPOS>ATOM
      1  N          5.4870   25.3030    6.5050 N.3     8  ARG8       -0.1245
      2  CA         5.6290   23.9590    5.9870 C.3     8  ARG8        0.1563
      3  C          4.7380   23.7980    4.7800 C.2     8  ARG8        0.2260
      4  O          3.5530   24.1000    4.8420 O.2     8  ARG8       -0.2867
      5  CB         5.2410   22.9340    7.0480 C.3     8  ARG8        0.0307
      6  CG         5.4060   21.4890    6.5820 C.3     8  ARG8        0.0489
      7  CD         4.9600   20.4880    7.6440 C.3     8  ARG8        0.2205
      8  NE         5.4780   19.1380    7.4030 N.pl3   8  ARG8       -0.0865
      9  CZ         5.1010   18.0550    8.0720 C.cat   8  ARG8        0.5346
     10  NH1        4.1920   18.1550    9.0340 N.pl3   8  ARG8        0.1354
     11  NH2        5.6350   16.8760    7.7780 N.pl3   8  ARG8        0.1354
     12  N          3.0520   21.2690    2.0870 N.3    10  ARG10      -0.1231
     13  CA         2.6480   19.8740    1.9130 C.3    10  ARG10       0.1679
     14  C          2.6570   19.4730    0.4420 C.2    10  ARG10       0.2434
     15  O          3.0310   20.2590   -0.4260 O.2    10  ARG10      -0.2733
     16  CB         1.2160   19.6750    2.4340 C.3    10  ARG10       0.0321
     17  CG         0.1620   20.3740    1.5740 C.3    10  ARG10       0.0489
     18  CD        -1.2250   19.7790    1.7610 C.3    10  ARG10       0.2205
     19  NE        -2.2880   20.7230    1.3920 N.pl3  10  ARG10      -0.0865
     20  CZ        -2.6260   21.0560    0.1480 C.cat  10  ARG10       0.5346
     21  NH1       -1.9940   20.5340   -0.8970 N.pl3  10  ARG10       0.1354
     22  NH2       -3.6090   21.9190   -0.0480 N.pl3  10  ARG10       0.1354
     23  N          2.2790   18.2190    0.1530 N.am   11  PRO11      -0.2729
     24  CA         2.2160   17.7060   -1.2230 C.3    11  PRO11       0.1401
     25  C          0.8810   18.1880   -1.8240 C.2    11  PRO11       0.2269
     26  O          0.0110   18.6880   -1.0980 O.2    11  PRO11      -0.2865
     27  CB         2.2200   16.1910   -1.0320 C.3    11  PRO11       0.0296
     28  CG         3.0000   16.0110    0.2430 C.3    11  PRO11       0.0237
     29  CD         2.4180   17.1060    1.1080 C.3    11  PRO11       0.0939
     30  N         -2.8890   18.1020   -3.1850 N.3    13  ASN13      -0.1240
     31  CA        -4.0400   17.3290   -2.7170 C.3    13  ASN13       0.1653
     32  C         -4.8540   16.9850   -3.9660 C.2    13  ASN13       0.2266
     33  O         -4.5160   17.4350   -5.0730 O.2    13  ASN13      -0.2867
     34  CB        -4.8910   18.1080   -1.6820 C.3    13  ASN13       0.1155
     35  CG        -5.3880   19.4520   -2.1950 C.2    13  ASN13       0.2627
     36  OD1       -5.4410   19.6880   -3.3960 O.2    13  ASN13      -0.2716
     37  ND2       -5.7710   20.3330   -1.2770 N.am   13  ASN13      -0.0877
     38  N          7.9790   19.8970    2.5270 N.3    55  SER55      -0.1217
     39  CA         7.3300   18.5970    2.6290 C.3    55  SER55       0.1889
     40  C          6.4220   18.3380    1.4370 C.2    55  SER55       0.2288
     41  O          5.4430   17.6000    1.5410 O.2    55  SER55      -0.2866
     42  CB         6.5180   18.5210    3.9310 C.3    55  SER55       0.2089
     43  OG         7.3580   18.5320    5.0810 O.3    55  SER55      -0.2183
     44  N         13.4160   16.3530    1.9620 N.3    64  TYR64      -0.1241
     45  CA        12.0880   16.3090    2.5420 C.3    64  TYR64       0.1605
     46  C         12.1290   16.4440    4.0690 C.2    64  TYR64       0.2264
     47  O         13.0420   15.9500    4.7310 O.2    64  TYR64      -0.2867
     48  CB        11.4010   15.0130    2.1130 C.3    64  TYR64       0.0534
     49  CG         9.9740   14.8650    2.5820 C.ar   64  TYR64      -0.0201
     50  CD1        9.6830   14.2210    3.7820 C.ar   64  TYR64      -0.0009
     51  CD2        8.9140   15.3850    1.8340 C.ar   64  TYR64      -0.0009
     52  CE1        8.3760   14.0970    4.2300 C.ar   64  TYR64       0.0417
     53  CE2        7.5970   15.2680    2.2700 C.ar   64  TYR64       0.0417
     54  CZ         7.3350   14.6230    3.4700 C.ar   64  TYR64       0.1957
     55  OH         6.0430   14.4970    3.9230 O.3    64  TYR64      -0.2866
     56  N         -7.4990   26.4050    4.9380 N.3    96  THR96      -0.1203
     57  CA        -8.2410   25.1670    5.1020 C.3    96  THR96       0.1994
     58  C         -7.6330   24.1000    4.2110 C.2    96  THR96       0.2618
     59  O         -7.6260   24.2450    2.9870 O.2    96  THR96      -0.2717
     60  CB        -9.7120   25.3510    4.6930 C.3    96  THR96       0.1784
     61  OG1      -10.3200   26.3170    5.5480 O.3    96  THR96      -0.2211
     62  CG2      -10.4810   24.0520    4.8270 C.3    96  THR96       0.0376
     63  N         -7.1270   23.0330    4.8270 N.am   97  GLY97      -0.1942
     64  CA        -6.5140   21.9630    4.0690 C.3    97  GLY97       0.2014
     65  C         -5.0200   22.1210    3.8270 C.2    97  GLY97       0.2639
     66  O         -4.4170   21.2980    3.1340 O.2    97  GLY97      -0.2714
     67  N         -4.4180   23.1560    4.4080 N.am   98  ALA98      -0.1963
     68  CA        -2.9840   23.4180    4.2390 C.3    98  ALA98       0.1728
     69  C         -2.1010   22.3990    4.9300 C.2    98  ALA98       0.2617
     70  O         -0.9500   22.2230    4.5520 O.2    98  ALA98      -0.2715
     71  CB        -2.6330   24.8130    4.7390 C.3    98  ALA98       0.0334
     72  N         -2.6290   21.7440    5.9530 N.am   99  GLY99      -0.1940
     73  CA        -1.8540   20.7480    6.6710 C.3    99  GLY99       0.2014
     74  C         -1.6320   21.0370    8.1490 C.2    99  GLY99       0.2639
     75  O         -0.6690   20.5560    8.7470 O.2    99  GLY99      -0.2714
     76  N         -2.5320   21.7950    8.7570 N.am  100  LYS100     -0.1963
     77  CA        -2.3830   22.1310   10.1670 C.3   100  LYS100      0.1728
     78  C         -2.4680   20.9050   11.0770 C.2   100  LYS100      0.2617
     79  O         -1.6040   20.6710   11.9260 O.2   100  LYS100     -0.2715
     80  CB        -3.4340   23.1820   10.5600 C.3   100  LYS100      0.0311
     81  CG        -3.3280   24.4550    9.7290 C.3   100  LYS100      0.0038
     82  CD        -4.4250   25.4550   10.0570 C.3   100  LYS100      0.0206
     83  CE        -5.7960   24.9000    9.7110 C.3   100  LYS100      0.1093
     84  NZ        -5.9420   24.5490    8.2630 N.3   100  LYS100     -0.1314
     85  N         -3.4930   20.0960   10.8730 N.am  101  SER101     -0.1936
     86  CA        -3.6710   18.9270   11.7090 C.3   101  SER101      0.2055
     87  C         -2.6470   17.8370   11.4780 C.2   101  SER101      0.2643
     88  O         -2.2820   17.1120   12.4070 O.2   101  SER101     -0.2714
     89  CB        -5.0720   18.3780   11.5160 C.3   101  SER101      0.2130
     90  OG        -5.9880   19.3220   12.0160 O.3   101  SER101     -0.2179
     91  N         -2.1890   17.7110   10.2390 N.am  102  TYR102     -0.1959
     92  CA        -1.2050   16.6910    9.9260 C.3   102  TYR102      0.1771
     93  C          0.0310   17.0390   10.7230 C.2   102  TYR102      0.2620
     94  O          0.6780   16.1720   11.3080 O.2   102  TYR102     -0.2715
     95  CB        -0.8650   16.6910    8.4320 C.3   102  TYR102      0.0574
     96  CG         0.1840   15.6640    8.0480 C.ar  102  TYR102     -0.0198
     97  CD1       -0.1780   14.3550    7.7370 C.ar  102  TYR102     -0.0009
     98  CD2        1.5400   15.9990    8.0100 C.ar  102  TYR102     -0.0009
     99  CE1        0.7750   13.4070    7.3930 C.ar  102  TYR102      0.0417
    100  CE2        2.5020   15.0510    7.6710 C.ar  102  TYR102      0.0417
    101  CZ         2.1100   13.7580    7.3600 C.ar  102  TYR102      0.1957
    102  OH         3.0520   12.8230    7.0080 O.3   102  TYR102     -0.2866
    103  N          0.3440   18.3230   10.7570 N.am  103  THR103     -0.1951
    104  CA         1.5100   18.7730   11.4890 C.3   103  THR103      0.1897
    105  C          1.3640   18.5780   13.0050 C.2   103  THR103      0.2313
    106  O          2.2560   18.0170   13.6470 O.2   103  THR103     -0.2863
    107  CB         1.8150   20.2530   11.1560 C.3   103  THR103      0.1794
    108  OG1        2.1340   20.3600    9.7700 O.3   103  THR103     -0.2208
    109  CG2        3.0000   20.7590   11.9670 C.3   103  THR103      0.0378
    110  N         -0.9870   11.1870   11.8450 N.3   107  LYS107     -0.1245
    111  CA        -1.7510    9.9490   11.8050 C.3   107  LYS107      0.1561
    112  C         -1.2000    8.9880   12.8540 C.2   107  LYS107      0.2260
    113  O          0.0020    8.8120   12.9820 O.2   107  LYS107     -0.2867
    114  CB        -1.6660    9.3370   10.4030 C.3   107  LYS107      0.0271
    115  CG        -2.1010   10.3270    9.3180 C.3   107  LYS107      0.0035
    116  CD        -2.1920    9.7220    7.9210 C.3   107  LYS107      0.0206
    117  CE        -2.7020   10.7550    6.9090 C.3   107  LYS107      0.1093
    118  NZ        -3.1180   10.1560    5.6110 N.3   107  LYS107     -0.1314
    119  N          3.7520    8.4420   10.8220 N.3   112  GLN112     -0.1245
    120  CA         2.9840    9.7180   10.5550 C.3   112  GLN112      0.1566
    121  C          2.5350   10.6090   11.7870 C.2   112  GLN112      0.2260
    122  O          1.8060   11.5820   11.6500 O.2   112  GLN112     -0.2867
    123  CB         1.7640    9.3740    9.6960 C.3   112  GLN112      0.0367
    124  CG         2.1230    8.5190    8.4800 C.3   112  GLN112      0.0905
    125  CD         2.4330    9.4180    7.3060 C.2   112  GLN112      0.2608
    126  OE1        1.5680    9.9350    6.6170 O.2   112  GLN112     -0.2717
    127  NE2        3.7520    9.5880    7.0850 N.am  112  GLN112     -0.0878
    128  N        -15.3320   21.3350    5.7600 N.3   207  SER207     -0.1202
    129  CA       -14.0520   21.5440    6.4450 C.3   207  SER207      0.2020
    130  C        -14.1240   22.1760    7.8450 C.2   207  SER207      0.2619
    131  O        -15.0050   22.9950    8.1320 O.2   207  SER207     -0.2717
    132  CB       -13.1310   22.3790    5.5520 C.3   207  SER207      0.2103
    133  OG       -12.8380   21.6890    4.3490 O.3   207  SER207     -0.2182
    134  N        -13.1630   21.7920    8.6910 N.am  208  SER208     -0.1951
    135  CA       -13.0490   22.2260   10.0890 C.3   208  SER208      0.1924
    136  C        -13.2760   23.6940   10.4110 C.2   208  SER208      0.2314
    137  O        -12.5670   24.5780    9.9150 O.2   208  SER208     -0.2863
    138  CB       -11.6840   21.8020   10.6590 C.3   208  SER208      0.2116
    139  OG       -10.7880   22.8990   10.8080 O.3   208  SER208     -0.2180
    140  N         -5.6560   25.3240   14.9220 N.3   242  LEU242     -0.1245
    141  CA        -6.7660   26.2030   14.5360 C.3   242  LEU242      0.1561
    142  C         -7.5150   25.7630   13.2970 C.2   242  LEU242      0.2260
    143  O         -7.0830   24.8710   12.5700 O.2   242  LEU242     -0.2867
    144  CB        -6.2490   27.6210   14.2750 C.3   242  LEU242      0.0270
    145  CG        -5.2350   28.2390   15.2470 C.3   242  LEU242      0.0019
    146  CD1       -4.4380   29.3100   14.5320 C.3   242  LEU242      0.0001
    147  CD2       -5.9400   28.8040   16.4640 C.3   242  LEU242      0.0001
    148  N         -9.0620   26.3740    9.5070 N.3   244  GLY244     -0.1225
    149  CA        -8.3420   27.0030    8.4060 C.3   244  GLY244      0.1811
    150  C         -8.9440   28.3620    8.0430 C.2   244  GLY244      0.2280
    151  O        -10.1510   28.5410    7.9550 O.2   244  GLY244     -0.2866
@<TRIPOS>BOND
     1    33    32    2
     2    32    31    1
     3    36    35    2
     4    30    31    1
     5    31    34    1
     6    35    34    1
     7    35    37   am
     8    25    24    1
     9    25    26    2
    10    24    27    1
    11    24    23    1
    12    27    28    1
    13    21    20    1
    14    15    14    2
    15    22    20    1
    16    20    19    2
    17    23    14   am
    18    23    29    1
    19    28    29    1
    20    14    13    1
    21    19    18    1
    22    40    41    2
    23    40    39    1
    24    17    18    1
    25    17    16    1
    26    51    53   ar
    27    51    49   ar
    28    13    12    1
    29    13    16    1
    30    44    45    1
    31    48    45    1
    32    48    49    1
    33    53    54   ar
    34    38    39    1
    35    45    46    1
    36    49    50   ar
    37    39    42    1
    38    59    58    2
    39    66    65    2
    40    54    55    1
    41    54    52   ar
    42    50    52   ar
    43    65    64    1
    44    65    67   am
    45    42    43    1
    46    64    63    1
    47    46    47    2
    48    58    63   am
    49    58    57    1
    50    68    67    1
    51    68    71    1
    52    68    69    1
    53   133   132    1
    54    70    69    2
    55    60    62    1
    56    60    57    1
    57    60    61    1
    58     3     4    2
    59     3     2    1
    60    69    72   am
    61    56    57    1
    62   132   129    1
    63   118   117    1
    64   128   129    1
    65    72    73    1
    66     2     1    1
    67     2     5    1
    68   129   130    1
    69     6     5    1
    70     6     7    1
    71   126   125    2
    72    73    74    1
    73   117   116    1
    74   102   101    1
    75   127   125   am
    76   125   124    1
    77   101    99   ar
    78   101   100   ar
    79    99    97   ar
    80     8     7    1
    81     8     9    2
    82   100    98   ar
    83    97    96   ar
    84    11     9    1
    85   130   131    2
    86   130   134   am
    87   116   115    1
    88   151   150    2
    89    98    96   ar
    90   150   149    1
    91    96    95    1
    92     9    10    1
    93    74    75    2
    94    74    76   am
    95    84    83    1
    96   149   148    1
    97    95    92    1
    98   124   123    1
    99   134   135    1
   100    76    77    1
   101   115   114    1
   102   123   120    1
   103    83    82    1
   104    81    82    1
   105    81    80    1
   106   108   107    1
   107   137   136    2
   108    92    91    1
   109    92    93    1
   110   135   136    1
   111   135   138    1
   112    77    80    1
   113    77    78    1
   114    91    87   am
   115   114   111    1
   116   120   119    1
   117   120   121    1
   118   138   139    1
   119    93   103   am
   120    93    94    2
   121   103   104    1
   122    85    78   am
   123    85    86    1
   124    78    79    2
   125   107   104    1
   126   107   109    1
   127    87    86    1
   128    87    88    2
   129   104   105    1
   130    89    86    1
   131    89    90    1
   132   122   121    2
   133   111   110    1
   134   111   112    1
   135   143   142    2
   136   112   113    2
   137   105   106    2
   138   142   141    1
   139   144   141    1
   140   144   145    1
   141   146   145    1
   142   141   140    1
   143   145   147    1
