@<TRIPOS>MOLECULE
tmp/1vfzA00.pdb
 141 134 0 0 0
SMALL
GASTEIGER

@<TRIPOS>ATOM
      1  N         13.1810  -24.9800    6.1950 N.3     8  ARG8       -0.1245
      2  CA        12.8750  -23.6600    5.6630 C.3     8  ARG8        0.1563
      3  C         13.7170  -23.3290    4.4500 C.2     8  ARG8        0.2260
      4  O         14.9320  -23.3230    4.5360 O.2     8  ARG8       -0.2867
      5  CB        13.1210  -22.6070    6.7510 C.3     8  ARG8        0.0307
      6  CG        12.5500  -21.2320    6.4170 C.3     8  ARG8        0.0489
      7  CD        13.1410  -20.1480    7.3020 C.3     8  ARG8        0.2205
      8  NE        12.4080  -18.8880    7.1860 N.pl3   8  ARG8       -0.0865
      9  CZ        12.7460  -17.7610    7.8100 C.cat   8  ARG8        0.5346
     10  NH1       13.8060  -17.7170    8.5970 N.pl3   8  ARG8        0.1354
     11  NH2       12.0100  -16.6770    7.6540 N.pl3   8  ARG8        0.1354
     12  N         15.0240  -20.6680    1.5670 N.3    10  ARG10      -0.1231
     13  CA        15.2930  -19.2470    1.4140 C.3    10  ARG10       0.1679
     14  C         15.2760  -18.7190   -0.0260 C.2    10  ARG10       0.2434
     15  O         15.0880  -19.4710   -0.9860 O.2    10  ARG10      -0.2733
     16  CB        16.6550  -18.9480    2.0500 C.3    10  ARG10       0.0321
     17  CG        17.8240  -19.6460    1.3450 C.3    10  ARG10       0.0489
     18  CD        19.1580  -18.9850    1.6540 C.3    10  ARG10       0.2205
     19  NE        20.2760  -19.7180    1.0740 N.pl3  10  ARG10      -0.0865
     20  CZ        20.4310  -19.9420   -0.2270 C.cat  10  ARG10       0.5346
     21  NH1       19.5440  -19.4810   -1.0920 N.pl3  10  ARG10       0.1354
     22  NH2       21.4630  -20.6590   -0.6680 N.pl3  10  ARG10       0.1354
     23  N         15.4700  -17.3980   -0.1940 N.am   11  PRO11      -0.2729
     24  CA        15.4720  -16.8190   -1.5430 C.3    11  PRO11       0.1401
     25  C         16.7950  -17.1530   -2.1970 C.2    11  PRO11       0.2269
     26  O         17.7400  -17.5050   -1.5090 O.2    11  PRO11      -0.2865
     27  CB        15.3190  -15.3180   -1.2710 C.3    11  PRO11       0.0296
     28  CG        14.5990  -15.2780    0.0690 C.3    11  PRO11       0.0237
     29  CD        15.3560  -16.3380    0.8220 C.3    11  PRO11       0.0939
     30  N         20.4270  -16.9070   -3.5080 N.3    13  ASN13      -0.1240
     31  CA        21.4650  -16.0670   -2.9750 C.3    13  ASN13       0.1653
     32  C         22.2480  -15.5960   -4.1680 C.2    13  ASN13       0.2266
     33  O         21.8580  -15.8550   -5.3060 O.2    13  ASN13      -0.2867
     34  CB        22.3580  -16.8170   -1.9970 C.3    13  ASN13       0.1155
     35  CG        23.0170  -18.0380   -2.6050 C.2    13  ASN13       0.2627
     36  OD1       23.0030  -18.2490   -3.8240 O.2    13  ASN13      -0.2716
     37  ND2       23.6240  -18.8430   -1.7470 N.am   13  ASN13      -0.0877
     38  N         10.0210  -19.6410    2.4700 N.3    55  SER55      -0.1217
     39  CA        10.5280  -18.2610    2.5960 C.3    55  SER55       0.1889
     40  C         11.4070  -17.9910    1.3930 C.2    55  SER55       0.2288
     41  O         12.4540  -17.3630    1.5190 O.2    55  SER55      -0.2866
     42  CB        11.4040  -18.0890    3.8450 C.3    55  SER55       0.2089
     43  OG        10.7100  -18.3920    5.0440 O.3    55  SER55      -0.2183
     44  N          4.6970  -15.9310    2.1300 N.3    64  TYR64      -0.1241
     45  CA         6.0710  -15.9520    2.5420 C.3    64  TYR64       0.1605
     46  C          6.0440  -16.2720    4.0370 C.2    64  TYR64       0.2264
     47  O          5.2050  -15.7550    4.7800 O.2    64  TYR64      -0.2867
     48  CB         6.7300  -14.5890    2.2920 C.3    64  TYR64       0.0534
     49  CG         8.1190  -14.4620    2.8720 C.ar   64  TYR64      -0.0201
     50  CD1        8.3090  -14.1100    4.1950 C.ar   64  TYR64      -0.0009
     51  CD2        9.2350  -14.7180    2.1010 C.ar   64  TYR64      -0.0009
     52  CE1        9.5760  -14.0180    4.7280 C.ar   64  TYR64       0.0417
     53  CE2       10.5080  -14.6320    2.6340 C.ar   64  TYR64       0.0417
     54  CZ        10.6650  -14.2850    3.9320 C.ar   64  TYR64       0.1957
     55  OH        11.9270  -14.2080    4.4430 O.3    64  TYR64      -0.2866
     56  N         26.2670  -24.4110    4.7350 N.3    96  THR96      -0.1203
     57  CA        26.7160  -23.0340    4.8370 C.3    96  THR96       0.1994
     58  C         25.9650  -22.1770    3.8260 C.2    96  THR96       0.2618
     59  O         25.8800  -22.5220    2.6370 O.2    96  THR96      -0.2717
     60  CB        28.2280  -22.9030    4.5600 C.3    96  THR96       0.1784
     61  OG1       28.9630  -23.4850    5.6430 O.3    96  THR96      -0.2211
     62  CG2       28.6170  -21.4290    4.4310 C.3    96  THR96       0.0376
     63  N         25.4070  -21.0720    4.3140 N.am   97  GLY97      -0.1942
     64  CA        24.6820  -20.1590    3.4490 C.3    97  GLY97       0.2014
     65  C         23.2300  -20.4920    3.1900 C.2    97  GLY97       0.2639
     66  O         22.5680  -19.7990    2.4080 O.2    97  GLY97      -0.2714
     67  N         22.7090  -21.5130    3.8600 N.am   98  ALA98      -0.1963
     68  CA        21.3310  -21.9220    3.6330 C.3    98  ALA98       0.1728
     69  C         20.3060  -21.1080    4.4020 C.2    98  ALA98       0.2617
     70  O         19.1280  -21.0750    4.0290 O.2    98  ALA98      -0.2715
     71  CB        21.1700  -23.4100    3.9610 C.3    98  ALA98       0.0334
     72  N         20.7410  -20.4950    5.4970 N.am   99  GLY99      -0.1940
     73  CA        19.8450  -19.6760    6.2880 C.3    99  GLY99       0.2014
     74  C         19.8090  -19.9500    7.7700 C.2    99  GLY99       0.2639
     75  O         18.8280  -19.5960    8.4300 O.2    99  GLY99      -0.2714
     76  N         20.8580  -20.5600    8.3150 N.am  100  LYS100     -0.1963
     77  CA        20.8510  -20.8630    9.7470 C.3   100  LYS100      0.1728
     78  C         20.9090  -19.6320   10.6470 C.2   100  LYS100      0.2617
     79  O         20.1130  -19.5060   11.5800 O.2   100  LYS100     -0.2715
     80  CB        22.0090  -21.8020   10.1240 C.3   100  LYS100      0.0311
     81  CG        21.9620  -23.1900    9.4810 C.3   100  LYS100      0.0038
     82  CD        23.1180  -24.0570    9.9760 C.3   100  LYS100      0.0206
     83  CE        24.4520  -23.4370    9.6220 C.3   100  LYS100      0.1093
     84  NZ        24.4300  -23.0030    8.1920 N.3   100  LYS100     -0.1314
     85  N         21.8690  -18.7440   10.3870 N.am  101  SER101     -0.1936
     86  CA        22.0250  -17.5280   11.1870 C.3   101  SER101      0.2055
     87  C         20.8400  -16.5830   11.0030 C.2   101  SER101      0.2643
     88  O         20.3450  -15.9920   11.9540 O.2   101  SER101     -0.2714
     89  CB        23.3080  -16.8130   10.8000 C.3   101  SER101      0.2130
     90  OG        24.4180  -17.5020   11.3090 O.3   101  SER101     -0.2179
     91  N         20.3640  -16.4670    9.7790 N.am  102  TYR102     -0.1959
     92  CA        19.2390  -15.5940    9.5310 C.3   102  TYR102      0.1771
     93  C         18.0300  -16.0250   10.3440 C.2   102  TYR102      0.2620
     94  O         17.2580  -15.1910   10.8200 O.2   102  TYR102     -0.2715
     95  CB        18.8830  -15.5970    8.0490 C.3   102  TYR102      0.0574
     96  CG        17.7930  -14.6150    7.7220 C.ar  102  TYR102     -0.0198
     97  CD1       18.0760  -13.2640    7.5250 C.ar  102  TYR102     -0.0009
     98  CD2       16.4660  -15.0250    7.6670 C.ar  102  TYR102     -0.0009
     99  CE1       17.0540  -12.3460    7.2830 C.ar  102  TYR102      0.0417
    100  CE2       15.4430  -14.1210    7.4270 C.ar  102  TYR102      0.0417
    101  CZ        15.7430  -12.7870    7.2370 C.ar  102  TYR102      0.1957
    102  OH        14.7180  -11.9060    7.0150 O.3   102  TYR102     -0.2866
    103  N         17.8760  -17.3350   10.5210 N.am  103  THR103     -0.1951
    104  CA        16.7390  -17.8780   11.2570 C.3   103  THR103      0.1897
    105  C         16.8790  -17.7280   12.7520 C.2   103  THR103      0.2313
    106  O         15.8870  -17.5210   13.4580 O.2   103  THR103     -0.2863
    107  CB        16.5240  -19.3880   10.8820 C.3   103  THR103      0.1794
    108  OG1       16.1330  -19.4860    9.5080 O.3   103  THR103     -0.2208
    109  CG2       15.4530  -20.0210   11.7260 C.3   103  THR103      0.0378
    110  N         18.3540  -10.1450   11.2580 N.3   107  LYS107     -0.1245
    111  CA        18.9060   -8.8270   11.0870 C.3   107  LYS107      0.1561
    112  C         18.2440   -7.8600   12.0540 C.2   107  LYS107      0.2260
    113  O         17.0290   -7.9090   12.2860 O.2   107  LYS107     -0.2867
    114  CB        18.7620   -8.4320    9.6150 C.3   107  LYS107      0.0271
    115  CG        19.5300   -9.4340    8.7460 C.3   107  LYS107      0.0035
    116  CD        19.2520   -9.3330    7.2600 C.3   107  LYS107      0.0206
    117  CE        20.5350   -9.1210    6.4850 C.3   107  LYS107      0.1093
    118  NZ        20.2950   -9.1150    5.0150 N.3   107  LYS107     -0.1314
    119  N         13.2480   -8.3100   10.4800 N.3   112  GLN112     -0.1245
    120  CA        14.0410   -9.5050   10.2580 C.3   112  GLN112      0.1566
    121  C         14.7170  -10.0890   11.4750 C.2   112  GLN112      0.2260
    122  O         15.7320  -10.7510   11.3590 O.2   112  GLN112     -0.2867
    123  CB        15.0810   -9.2290    9.1820 C.3   112  GLN112      0.0367
    124  CG        14.4660   -8.7630    7.8720 C.3   112  GLN112      0.0905
    125  CD        15.4960   -8.5590    6.7820 C.2   112  GLN112      0.2608
    126  OE1       16.0500   -7.4670    6.6270 O.2   112  GLN112     -0.2717
    127  NE2       15.7720   -9.6170    6.0260 N.am  112  GLN112     -0.0878
    128  N         31.3220  -20.1840    9.9850 N.3   212  SER212     -0.1217
    129  CA        30.5610  -21.3020    9.4510 C.3   212  SER212      0.1889
    130  C         31.0630  -22.7010    9.8810 C.2   212  SER212      0.2288
    131  O         30.4150  -23.7090    9.6010 O.2   212  SER212     -0.2866
    132  CB        30.5500  -21.2100    7.9310 C.3   212  SER212      0.2089
    133  OG        31.8780  -21.2150    7.4450 O.3   212  SER212     -0.2183
    134  N         23.2530  -22.2300   16.6410 N.3   243  ASP243     -0.1239
    135  CA        23.4710  -21.9980   15.2340 C.3   243  ASP243      0.1674
    136  C         24.6510  -22.8980   14.9050 C.2   243  ASP243      0.2266
    137  O         25.8040  -22.5080   15.0400 O.2   243  ASP243     -0.2867
    138  CB        23.7850  -20.5070   15.0270 C.3   243  ASP243      0.1410
    139  CG        24.0500  -20.1490   13.5890 C.2   243  ASP243      0.3668
    140  OD1       23.7720  -20.9570   12.6850 O.co2 243  ASP243     -0.2456
    141  OD2       24.5400  -19.0270   13.3630 O.co2 243  ASP243     -0.2456
@<TRIPOS>BOND
     1    33    32    2
     2    32    31    1
     3    36    35    2
     4    30    31    1
     5    31    34    1
     6    35    34    1
     7    35    37   am
     8    25    24    1
     9    25    26    2
    10    24    27    1
    11    24    23    1
    12    27    28    1
    13    21    20    1
    14    15    14    2
    15    22    20    1
    16    20    19    2
    17    23    14   am
    18    23    29    1
    19    14    13    1
    20    28    29    1
    21    19    18    1
    22    17    18    1
    23    17    16    1
    24    40    41    2
    25    40    39    1
    26    13    12    1
    27    13    16    1
    28    51    53   ar
    29    51    49   ar
    30    44    45    1
    31    48    45    1
    32    48    49    1
    33    66    65    2
    34    38    39    1
    35    45    46    1
    36    39    42    1
    37    53    54   ar
    38    59    58    2
    39    49    50   ar
    40    65    64    1
    41    65    67   am
    42    64    63    1
    43    68    67    1
    44    68    71    1
    45    68    69    1
    46    58    63   am
    47    58    57    1
    48    42    43    1
    49    54    55    1
    50    54    52   ar
    51    70    69    2
    52    46    47    2
    53    50    52   ar
    54    69    72   am
    55    62    60    1
    56     3     4    2
    57     3     2    1
    58    60    57    1
    59    60    61    1
    60    56    57    1
    61   118   117    1
    62    72    73    1
    63     2     1    1
    64     2     5    1
    65   127   125   am
    66    73    74    1
    67     6     5    1
    68     6     7    1
    69   117   116    1
    70   126   125    2
    71   125   124    1
    72   102   101    1
    73     8     7    1
    74     8     9    2
    75   101    99   ar
    76   101   100   ar
    77   116   115    1
    78    99    97   ar
    79   100    98   ar
    80   133   132    1
    81    97    96   ar
    82    11     9    1
    83    98    96   ar
    84    96    95    1
    85    74    76   am
    86    74    75    2
    87     9    10    1
    88   124   123    1
    89   132   129    1
    90    95    92    1
    91    84    83    1
    92    76    77    1
    93   115   114    1
    94   123   120    1
    95   129   130    1
    96   129   128    1
    97    81    82    1
    98    81    80    1
    99   108   107    1
   100    92    91    1
   101    92    93    1
   102   131   130    2
   103   114   111    1
   104    83    82    1
   105    77    80    1
   106    77    78    1
   107    91    87   am
   108   120   119    1
   109   120   121    1
   110    93   103   am
   111    93    94    2
   112    85    78   am
   113    85    86    1
   114   103   104    1
   115    78    79    2
   116    89    86    1
   117    89    90    1
   118   107   104    1
   119   107   109    1
   120    87    86    1
   121    87    88    2
   122   111   110    1
   123   111   112    1
   124   104   105    1
   125   122   121    2
   126   112   113    2
   127   140   139   ar
   128   105   106    2
   129   141   139   ar
   130   139   138    1
   131   136   137    2
   132   136   135    1
   133   138   135    1
   134   135   134    1
