@<TRIPOS>MOLECULE
tmp/1vg0A00.pdb
 159 151 0 0 0
SMALL
GASTEIGER

@<TRIPOS>ATOM
      1  N         78.9030   20.5630    5.2140 N.3   155  VAL155     -0.1231
      2  CA        78.7350   21.6550    4.2680 C.3   155  VAL155      0.1678
      3  C         79.8950   22.6470    4.3880 C.2   155  VAL155      0.2434
      4  O         80.4090   22.8810    5.4800 O.2   155  VAL155     -0.2733
      5  CB        77.3980   22.4100    4.4760 C.3   155  VAL155      0.0265
      6  CG1       76.3000   21.4390    4.8150 C.3   155  VAL155      0.0020
      7  CG2       77.5390   23.4600    5.5380 C.3   155  VAL155      0.0020
      8  N         80.3330   23.2280    3.2540 N.am  156  PRO156     -0.2718
      9  CA        81.4340   24.1990    3.1970 C.3   156  PRO156      0.1535
     10  C         81.2890   25.2540    4.2750 C.2   156  PRO156      0.2599
     11  O         80.1980   25.7600    4.4910 O.2   156  PRO156     -0.2715
     12  CB        81.2880   24.8120    1.8070 C.3   156  PRO156      0.0310
     13  CG        80.7860   23.6820    1.0040 C.3   156  PRO156      0.0237
     14  CD        79.7650   23.0010    1.9150 C.3   156  PRO156      0.0939
     15  N         82.3820   25.6020    4.9400 N.am  157  CYS157     -0.1954
     16  CA        82.2900   26.6150    5.9800 C.3   157  CYS157      0.1843
     17  C         83.4140   27.6610    5.9140 C.2   157  CYS157      0.2626
     18  O         83.5870   28.4770    6.8320 O.2   157  CYS157     -0.2714
     19  CB        82.2870   25.9370    7.3570 C.3   157  CYS157      0.0997
     20  SG        81.6060   26.9930    8.6030 S.3   157  CYS157     -0.0797
     21  N         84.1810   27.6270    4.8310 N.am  158  SER158     -0.1936
     22  CA        85.2740   28.5650    4.6510 C.3   158  SER158      0.2055
     23  C         85.6800   28.6930    3.1860 C.2   158  SER158      0.2642
     24  O         85.2680   27.9070    2.3350 O.2   158  SER158     -0.2714
     25  CB        86.4900   28.1240    5.4650 C.3   158  SER158      0.2130
     26  OG        86.9910   26.8810    5.0040 O.3   158  SER158     -0.2179
     27  N         86.5050   29.6930    2.9150 N.am  159  ARG159     -0.1977
     28  CA        87.0060   29.9400    1.5870 C.3   159  ARG159      0.1597
     29  C         87.7120   28.6580    1.1360 C.2   159  ARG159      0.2287
     30  O         87.4680   28.1470    0.0400 O.2   159  ARG159     -0.2864
     31  CB        87.9650   31.1290    1.6380 C.3   159  ARG159      0.0334
     32  CG        88.5050   31.6010    0.2990 C.3   159  ARG159      0.0492
     33  CD        89.3050   32.8840    0.4800 C.3   159  ARG159      0.2205
     34  NE        88.4190   34.0180    0.7240 N.pl3 159  ARG159     -0.0865
     35  CZ        87.9090   34.7910   -0.2360 C.cat 159  ARG159      0.5346
     36  NH1       88.2020   34.5570   -1.5120 N.pl3 159  ARG159      0.1354
     37  NH2       87.1060   35.8070    0.0780 N.pl3 159  ARG159      0.1354
     38  N         85.2050   26.0360    0.1190 N.3   162  VAL162     -0.1245
     39  CA        84.6150   26.2390   -1.1970 C.3   162  VAL162      0.1561
     40  C         85.6260   25.8730   -2.2890 C.2   162  VAL162      0.2260
     41  O         85.2550   25.2720   -3.2930 O.2   162  VAL162     -0.2867
     42  CB        84.1280   27.6740   -1.3510 C.3   162  VAL162      0.0252
     43  CG1       83.5060   27.8910   -2.7430 C.3   162  VAL162      0.0019
     44  CG2       83.1020   27.9530   -0.2570 C.3   162  VAL162      0.0019
     45  N         80.3250   21.3810   -5.7470 N.3   168  LEU168     -0.1245
     46  CA        79.8100   22.6290   -6.3200 C.3   168  LEU168      0.1561
     47  C         80.5590   22.9110   -7.6160 C.2   168  LEU168      0.2260
     48  O         81.7820   22.7640   -7.6830 O.2   168  LEU168     -0.2867
     49  CB        80.0250   23.8110   -5.3600 C.3   168  LEU168      0.0270
     50  CG        79.1860   23.8870   -4.0790 C.3   168  LEU168      0.0019
     51  CD1       79.8140   24.8900   -3.1210 C.3   168  LEU168      0.0001
     52  CD2       77.7610   24.2900   -4.4200 C.3   168  LEU168      0.0001
     53  N         78.1460   31.9440   -5.3160 N.3   176  LEU176     -0.1231
     54  CA        78.1800   31.9730   -3.8570 C.3   176  LEU176      0.1693
     55  C         79.0620   33.0770   -3.3030 C.2   176  LEU176      0.2591
     56  O         78.6150   33.8710   -2.4710 O.2   176  LEU176     -0.2718
     57  CB        78.6850   30.6350   -3.3140 C.3   176  LEU176      0.0284
     58  CG        77.9140   29.9310   -2.1970 C.3   176  LEU176      0.0019
     59  CD1       78.9090   29.0730   -1.4760 C.3   176  LEU176      0.0001
     60  CD2       77.2410   30.8870   -1.2350 C.3   176  LEU176      0.0001
     61  N         80.3230   33.1240   -3.7400 N.am  177  MET177     -0.1979
     62  CA        81.2130   34.1700   -3.2240 C.3   177  MET177      0.1605
     63  C         80.6060   35.5430   -3.4840 C.2   177  MET177      0.2287
     64  O         80.5030   36.3680   -2.5800 O.2   177  MET177     -0.2864
     65  CB        82.6110   34.0820   -3.8500 C.3   177  MET177      0.0413
     66  CG        83.3940   32.8260   -3.4690 C.3   177  MET177      0.0598
     67  SD        83.3020   32.4240   -1.6970 S.3   177  MET177     -0.1393
     68  CE        84.2890   33.7610   -0.9880 C.3   177  MET177      0.0692
     69  N         77.5930   36.0210   -0.9900 N.3   180  LEU180     -0.1231
     70  CA        77.9450   36.1780    0.4270 C.3   180  LEU180      0.1693
     71  C         78.7480   37.4450    0.6660 C.2   180  LEU180      0.2592
     72  O         78.7230   38.0100    1.7660 O.2   180  LEU180     -0.2718
     73  CB        78.7060   34.9460    0.9590 C.3   180  LEU180      0.0284
     74  CG        77.9520   33.6080    0.8440 C.3   180  LEU180      0.0019
     75  CD1       78.8670   32.4440    1.1620 C.3   180  LEU180      0.0001
     76  CD2       76.7570   33.6150    1.7660 C.3   180  LEU180      0.0001
     77  N         79.4560   37.9090   -0.3600 N.am  181  THR181     -0.1953
     78  CA        80.2260   39.1510   -0.2330 C.3   181  THR181      0.1897
     79  C         79.2220   40.2800   -0.0330 C.2   181  THR181      0.2313
     80  O         79.4340   41.1820    0.7620 O.2   181  THR181     -0.2863
     81  CB        81.0370   39.4380   -1.4900 C.3   181  THR181      0.1794
     82  OG1       81.9650   38.3720   -1.7080 O.3   181  THR181     -0.2208
     83  CG2       81.7960   40.7360   -1.3390 C.3   181  THR181      0.0378
     84  N         77.3860   40.1590    3.5360 N.3   184  VAL184     -0.1245
     85  CA        78.2310   40.7470    4.5630 C.3   184  VAL184      0.1561
     86  C         78.0390   42.2570    4.6750 C.2   184  VAL184      0.2260
     87  O         78.0100   42.8110    5.7720 O.2   184  VAL184     -0.2867
     88  CB        79.7160   40.4530    4.2760 C.3   184  VAL184      0.0252
     89  CG1       80.6010   41.2120    5.2400 C.3   184  VAL184      0.0019
     90  CG2       79.9710   38.9830    4.4170 C.3   184  VAL184      0.0019
     91  N         72.2790   26.0250   -4.1670 N.3   214  LEU214     -0.1245
     92  CA        72.9270   27.0640   -3.3730 C.3   214  LEU214      0.1561
     93  C         71.9390   27.7720   -2.4500 C.2   214  LEU214      0.2260
     94  O         72.2700   28.0780   -1.3090 O.2   214  LEU214     -0.2867
     95  CB        73.6130   28.1100   -4.2770 C.3   214  LEU214      0.0270
     96  CG        74.9520   27.7670   -4.9520 C.3   214  LEU214      0.0019
     97  CD1       75.5910   29.0370   -5.5230 C.3   214  LEU214      0.0001
     98  CD2       75.8980   27.1590   -3.9420 C.3   214  LEU214      0.0001
     99  N         71.2520   25.7970    0.7460 N.3   217  PHE217     -0.1241
    100  CA        72.3510   25.9540    1.7190 C.3   217  PHE217      0.1605
    101  C         72.3100   27.2660    2.4740 C.2   217  PHE217      0.2264
    102  O         72.5140   27.3010    3.6970 O.2   217  PHE217     -0.2867
    103  CB        73.7220   25.8500    1.0440 C.3   217  PHE217      0.0534
    104  CG        74.1070   24.4450    0.6930 C.ar  217  PHE217     -0.0203
    105  CD1       74.0380   23.4300    1.6560 C.ar  217  PHE217     -0.0042
    106  CD2       74.5320   24.1210   -0.5990 C.ar  217  PHE217     -0.0042
    107  CE1       74.3860   22.1150    1.3420 C.ar  217  PHE217     -0.0003
    108  CE2       74.8850   22.8030   -0.9250 C.ar  217  PHE217     -0.0003
    109  CZ        74.8110   21.7990    0.0510 C.ar  217  PHE217     -0.0000
    110  N         71.4570   26.1120    6.0190 N.3   221  SER221     -0.1202
    111  CA        72.7270   25.9490    6.7450 C.3   221  SER221      0.2020
    112  C         73.4030   27.2260    7.2580 C.2   221  SER221      0.2618
    113  O         74.1510   27.1720    8.2390 O.2   221  SER221     -0.2717
    114  CB        73.7570   25.1950    5.8930 C.3   221  SER221      0.2103
    115  OG        73.3050   23.9070    5.5610 O.3   221  SER221     -0.2182
    116  N         73.1740   28.3560    6.5890 N.am  222  ILE222     -0.1979
    117  CA        73.7870   29.6150    6.9880 C.3   222  ILE222      0.1595
    118  C         72.8360   30.5260    7.7580 C.2   222  ILE222      0.2287
    119  O         73.0850   30.8390    8.9110 O.2   222  ILE222     -0.2864
    120  CB        74.3160   30.3930    5.7610 C.3   222  ILE222      0.0276
    121  CG1       75.3230   29.5400    4.9980 C.3   222  ILE222      0.0022
    122  CG2       74.9800   31.7040    6.1990 C.3   222  ILE222      0.0022
    123  CD1       75.7210   30.1620    3.6610 C.3   222  ILE222      0.0001
    124  N         76.4180   35.2310   10.6080 N.3   240  PHE240     -0.1227
    125  CA        77.1000   33.9430   10.4630 C.3   240  PHE240      0.1736
    126  C         78.4990   34.1370    9.8590 C.2   240  PHE240      0.2595
    127  O         79.4990   33.6520   10.4050 O.2   240  PHE240     -0.2718
    128  CB        76.2340   33.0460    9.5650 C.3   240  PHE240      0.0547
    129  CG        76.7320   31.6400    9.4150 C.ar  240  PHE240     -0.0202
    130  CD1       76.0950   30.5900   10.0690 C.ar  240  PHE240     -0.0042
    131  CD2       77.7810   31.3520    8.5630 C.ar  240  PHE240     -0.0042
    132  CE1       76.4940   29.2670    9.8640 C.ar  240  PHE240     -0.0003
    133  CE2       78.1970   30.0220    8.3480 C.ar  240  PHE240     -0.0003
    134  CZ        77.5530   28.9840    8.9940 C.ar  240  PHE240     -0.0000
    135  N         78.5500   34.8400    8.7240 N.am  241  LEU241     -0.1966
    136  CA        79.7920   35.1180    8.0090 C.3   241  LEU241      0.1728
    137  C         80.7590   35.8820    8.9020 C.2   241  LEU241      0.2616
    138  O         81.9330   35.5550    8.9640 O.2   241  LEU241     -0.2715
    139  CB        79.4950   35.9190    6.7210 C.3   241  LEU241      0.0311
    140  CG        78.6100   35.1940    5.6930 C.3   241  LEU241      0.0022
    141  CD1       78.1940   36.1290    4.5510 C.3   241  LEU241      0.0001
    142  CD2       79.3720   34.0040    5.1550 C.3   241  LEU241      0.0001
    143  N         80.2580   36.8850    9.6160 N.am  242  GLN242     -0.1977
    144  CA        81.1140   37.6780   10.5120 C.3   242  GLN242      0.1601
    145  C         81.7530   36.9030   11.6670 C.2   242  GLN242      0.2287
    146  O         82.8610   37.2300   12.1000 O.2   242  GLN242     -0.2864
    147  CB        80.3270   38.8540   11.0820 C.3   242  GLN242      0.0394
    148  CG        79.9590   39.8810   10.0380 C.3   242  GLN242      0.0908
    149  CD        79.3540   41.1090   10.6610 C.2   242  GLN242      0.2608
    150  OE1       78.3430   41.0260   11.3630 O.2   242  GLN242     -0.2717
    151  NE2       79.9670   42.2570   10.4160 N.am  242  GLN242     -0.0878
    152  N         82.6480   33.7580   11.5190 N.3   244  LEU244     -0.1245
    153  CA        83.6190   32.8160   10.9960 C.3   244  LEU244      0.1561
    154  C         85.0450   33.1610   11.3600 C.2   244  LEU244      0.2260
    155  O         85.4620   34.3180   11.2570 O.2   244  LEU244     -0.2867
    156  CB        83.5060   32.7050    9.4670 C.3   244  LEU244      0.0270
    157  CG        82.1710   32.1530    8.9680 C.3   244  LEU244      0.0019
    158  CD1       82.2130   32.0260    7.4840 C.3   244  LEU244      0.0001
    159  CD2       81.8730   30.7980    9.6230 C.3   244  LEU244      0.0001
@<TRIPOS>BOND
     1    48    47    2
     2    47    46    1
     3    46    45    1
     4    46    49    1
     5    97    96    1
     6    49    50    1
     7    53    54    1
     8    96    95    1
     9    96    98    1
    10    52    50    1
    11    95    92    1
    12    91    92    1
    13    50    51    1
    14    54    57    1
    15    54    55    1
    16    65    66    1
    17    65    62    1
    18    61    55   am
    19    61    62    1
    20    63    62    1
    21    63    64    2
    22    66    67    1
    23    92    93    1
    24    57    58    1
    25    55    56    2
    26    41    40    2
    27    43    42    1
    28    93    94    2
    29    40    39    1
    30    58    59    1
    31    58    60    1
    32    82    81    1
    33    67    68    1
    34    36    35    1
    35    81    83    1
    36    81    78    1
    37    42    39    1
    38    42    44    1
    39    39    38    1
    40    69    70    1
    41   108   106   ar
    42   108   109   ar
    43   106   104   ar
    44    77    78    1
    45    77    71   am
    46    35    37    1
    47    35    34    2
    48    78    79    1
    49    79    80    2
    50    30    29    2
    51   109   107   ar
    52    32    33    1
    53    32    31    1
    54    70    71    1
    55    70    73    1
    56    33    34    1
    57    71    72    2
    58   104   103    1
    59   104   105   ar
    60    99   100    1
    61    74    73    1
    62    74    75    1
    63    74    76    1
    64    13    12    1
    65    13    14    1
    66   103   100    1
    67    29    28    1
    68   107   105   ar
    69    28    31    1
    70    28    27    1
    71   100   101    1
    72    12     9    1
    73    14     8    1
    74    24    23    2
    75   101   102    2
    76    27    23   am
    77    23    22    1
    78     9     8    1
    79     9    10    1
    80     8     3   am
    81    84    85    1
    82   123   121    1
    83     2     3    1
    84     2     5    1
    85     2     1    1
    86    10    11    2
    87    10    15   am
    88    88    90    1
    89    88    85    1
    90    88    89    1
    91     3     4    2
    92     5     6    1
    93     5     7    1
    94   141   140    1
    95    85    86    1
    96    22    21    1
    97    22    25    1
    98    86    87    2
    99    21    17   am
   100    15    16    1
   101   121   120    1
   102    26    25    1
   103   142   140    1
   104   115   114    1
   105   140   139    1
   106   120   122    1
   107   120   117    1
   108   114   111    1
   109    17    16    1
   110    17    18    2
   111    16    19    1
   112   110   111    1
   113   116   117    1
   114   116   112   am
   115   139   136    1
   116   111   112    1
   117   117   118    1
   118   112   113    2
   119    19    20    1
   120   158   157    1
   121   118   119    2
   122   136   135    1
   123   136   137    1
   124   133   131   ar
   125   133   134   ar
   126   131   129   ar
   127   135   126   am
   128   137   138    2
   129   137   143   am
   130   157   156    1
   131   157   159    1
   132   134   132   ar
   133   129   128    1
   134   129   130   ar
   135   156   153    1
   136   128   125    1
   137   143   144    1
   138   126   127    2
   139   126   125    1
   140   132   130   ar
   141   148   149    1
   142   148   147    1
   143   151   149   am
   144   125   124    1
   145   144   147    1
   146   144   145    1
   147   149   150    2
   148   153   154    1
   149   153   152    1
   150   155   154    2
   151   145   146    2
