@<TRIPOS>MOLECULE
tmp/1vg8A00.pdb
 183 178 0 0 0
SMALL
GASTEIGER

@<TRIPOS>ATOM
      1  N          9.2900    3.7250   32.8430 N.3    11  SER11      -0.1202
      2  CA         8.9520    3.8620   31.4590 C.3    11  SER11       0.2020
      3  C          9.5670    2.7260   30.6570 C.2    11  SER11       0.2619
      4  O         10.7320    2.3930   30.8770 O.2    11  SER11      -0.2717
      5  CB         9.4670    5.2120   30.9180 C.3    11  SER11       0.2103
      6  OG         9.1190    5.2740   29.5780 O.3    11  SER11      -0.2182
      7  N          8.7490    2.1590   29.7630 N.am   12  GLY12      -0.1942
      8  CA         9.1400    1.0850   28.8540 C.3    12  GLY12       0.2014
      9  C          9.0080   -0.3470   29.3310 C.2    12  GLY12       0.2639
     10  O          9.3210   -1.2870   28.5610 O.2    12  GLY12      -0.2714
     11  N          8.6100   -0.5450   30.6020 N.am   13  VAL13      -0.1963
     12  CA         8.4980   -1.9240   31.0780 C.3    13  VAL13       0.1727
     13  C          7.3430   -2.7100   30.5190 C.2    13  VAL13       0.2617
     14  O          7.3540   -3.9370   30.5630 O.2    13  VAL13      -0.2715
     15  CB         8.4940   -2.0140   32.6590 C.3    13  VAL13       0.0290
     16  CG1        9.7880   -1.2800   33.2250 C.3    13  VAL13       0.0023
     17  CG2        7.2070   -1.3460   33.2560 C.3    13  VAL13       0.0023
     18  N          6.3520   -2.0460   29.9460 N.am   14  GLY14      -0.1940
     19  CA         5.2220   -2.7740   29.4050 C.3    14  GLY14       0.2014
     20  C          3.8530   -2.6210   30.0570 C.2    14  GLY14       0.2639
     21  O          2.9660   -3.4280   29.8640 O.2    14  GLY14      -0.2714
     22  N          3.7230   -1.5940   30.8790 N.am   15  LYS15      -0.1963
     23  CA         2.4380   -1.3490   31.5580 C.3    15  LYS15       0.1728
     24  C          1.2740   -1.2250   30.6120 C.2    15  LYS15       0.2617
     25  O          0.2310   -1.8950   30.7670 O.2    15  LYS15      -0.2715
     26  CB         2.5200   -0.0470   32.3960 C.3    15  LYS15       0.0311
     27  CG         3.6100   -0.1700   33.4620 C.3    15  LYS15       0.0038
     28  CD         3.7210    1.0360   34.4200 C.3    15  LYS15       0.0206
     29  CE         3.9040    2.3310   33.5640 C.3    15  LYS15       0.1093
     30  NZ         5.2780    2.2960   32.9040 N.3    15  LYS15      -0.1314
     31  N          1.4150   -0.3490   29.6280 N.am   16  THR16      -0.1937
     32  CA         0.3240   -0.1740   28.6660 C.3    16  THR16       0.2028
     33  C          0.0430   -1.4240   27.8590 C.2    16  THR16       0.2642
     34  O         -1.1210   -1.7750   27.6160 O.2    16  THR16      -0.2714
     35  CB         0.6180    1.0200   27.7370 C.3    16  THR16       0.1808
     36  OG1        0.7480    2.1580   28.5790 O.3    16  THR16      -0.2208
     37  CG2       -0.5620    1.3030   26.8040 C.3    16  THR16       0.0379
     38  N          1.1230   -2.1140   27.4780 N.am   17  SER17      -0.1949
     39  CA         0.9930   -3.3540   26.7140 C.3    17  SER17       0.1924
     40  C          0.2820   -4.4360   27.5280 C.2    17  SER17       0.2314
     41  O         -0.5420   -5.1760   26.9910 O.2    17  SER17      -0.2863
     42  CB         2.3540   -3.8860   26.2360 C.3    17  SER17       0.2116
     43  OG         2.9860   -2.9510   25.3580 O.3    17  SER17      -0.2180
     44  N         -1.6910   -6.2610   20.9330 N.3    27  PHE27      -0.1227
     45  CA        -0.3330   -5.8430   21.2650 C.3    27  PHE27       0.1736
     46  C          0.2810   -5.1070   20.0830 C.2    27  PHE27       0.2596
     47  O          0.0730   -5.4870   18.9620 O.2    27  PHE27      -0.2718
     48  CB         0.5560   -7.0680   21.5520 C.3    27  PHE27       0.0547
     49  CG         2.0130   -6.7370   21.8500 C.ar   27  PHE27      -0.0202
     50  CD1        2.4100   -6.3070   23.1160 C.ar   27  PHE27      -0.0042
     51  CD2        2.9910   -6.8030   20.8450 C.ar   27  PHE27      -0.0042
     52  CE1        3.7250   -5.9510   23.3840 C.ar   27  PHE27      -0.0003
     53  CE2        4.3390   -6.4350   21.1070 C.ar   27  PHE27      -0.0003
     54  CZ         4.7100   -6.0040   22.3910 C.ar   27  PHE27      -0.0000
     55  N          1.0350   -4.0600   20.3600 N.am   28  SER28      -0.1938
     56  CA         1.7520   -3.3110   19.3360 C.3    28  SER28       0.2055
     57  C          3.2310   -3.2030   19.7040 C.2    28  SER28       0.2643
     58  O          3.5880   -2.9780   20.8860 O.2    28  SER28      -0.2714
     59  CB         1.1830   -1.9020   19.1880 C.3    28  SER28       0.2130
     60  OG         2.0740   -1.1190   18.3750 O.3    28  SER28      -0.2179
     61  N          4.1100   -3.3780   18.7210 N.am   29  ASN29      -0.1957
     62  CA         5.5200   -3.2280   18.9920 C.3    29  ASN29       0.1819
     63  C          5.8600   -1.7540   19.0780 C.2    29  ASN29       0.2621
     64  O          6.9310   -1.4020   19.5700 O.2    29  ASN29      -0.2715
     65  CB         6.3690   -3.8050   17.8770 C.3    29  ASN29       0.1195
     66  CG         6.3430   -5.3040   17.8540 C.2    29  ASN29       0.2630
     67  OD1        6.7050   -5.9620   18.8280 O.2    29  ASN29      -0.2716
     68  ND2        5.9190   -5.8640   16.7230 N.am   29  ASN29      -0.0877
     69  N          4.9650   -0.9040   18.5710 N.am   30  GLN30      -0.1963
     70  CA         5.2110    0.5370   18.5510 C.3    30  GLN30       0.1733
     71  C          5.0690    1.1470   19.9090 C.2    30  GLN30       0.2616
     72  O          4.0700    0.9380   20.5650 O.2    30  GLN30      -0.2715
     73  CB         4.2450    1.2430   17.5970 C.3    30  GLN30       0.0408
     74  CG         4.2240    0.6050   16.2200 C.3    30  GLN30       0.0908
     75  CD         5.5430    0.7930   15.4760 C.2    30  GLN30       0.2608
     76  OE1        5.8130    1.8850   14.9350 O.2    30  GLN30      -0.2717
     77  NE2        6.3720   -0.2540   15.4470 N.am   30  GLN30      -0.0878
     78  N          6.0720    1.9170   20.3230 N.am   31  TYR31      -0.1960
     79  CA         6.0110    2.5690   21.6190 C.3    31  TYR31       0.1771
     80  C          5.2880    3.9180   21.5560 C.2    31  TYR31       0.2619
     81  O          5.5790    4.7650   20.6850 O.2    31  TYR31      -0.2715
     82  CB         7.4250    2.8050   22.1750 C.3    31  TYR31       0.0574
     83  CG         7.4580    3.6580   23.4470 C.ar   31  TYR31      -0.0198
     84  CD1        8.2340    4.8220   23.5160 C.ar   31  TYR31      -0.0009
     85  CD2        6.6850    3.3230   24.5630 C.ar   31  TYR31      -0.0009
     86  CE1        8.2610    5.6370   24.6760 C.ar   31  TYR31       0.0417
     87  CE2        6.6870    4.1420   25.7310 C.ar   31  TYR31       0.0417
     88  CZ         7.4870    5.2890   25.7830 C.ar   31  TYR31       0.1957
     89  OH         7.5700    6.0880   26.9080 O.3    31  TYR31      -0.2866
     90  N          4.3390    4.1210   22.4560 N.am   32  LYS32      -0.1963
     91  CA         3.6850    5.4080   22.5370 C.3    32  LYS32       0.1728
     92  C          3.6410    5.7330   24.0370 C.2    32  LYS32       0.2616
     93  O          2.9130    5.0630   24.7910 O.2    32  LYS32      -0.2715
     94  CB         2.2720    5.3730   21.9300 C.3    32  LYS32       0.0311
     95  CG         1.6510    6.7550   21.8640 C.3    32  LYS32       0.0038
     96  CD         0.4450    6.7480   20.9320 C.3    32  LYS32       0.0206
     97  CE        -0.6600    7.7150   21.3930 C.3    32  LYS32       0.1093
     98  NZ        -0.2510    9.1250   21.5640 N.3    32  LYS32      -0.1314
     99  N          4.4190    6.7400   24.4590 N.am   33  ALA33      -0.1963
    100  CA         4.4560    7.1150   25.8560 C.3    33  ALA33       0.1728
    101  C          3.0640    7.4750   26.4090 C.2    33  ALA33       0.2616
    102  O          2.2370    8.1970   25.7890 O.2    33  ALA33      -0.2715
    103  CB         5.3900    8.2990   26.0720 C.3    33  ALA33       0.0334
    104  N          2.8280    6.9760   27.6110 N.am   34  THR34      -0.1951
    105  CA         1.6070    7.2840   28.3290 C.3    34  THR34       0.1897
    106  C          1.8330    8.6470   29.0210 C.2    34  THR34       0.2313
    107  O          2.8500    8.8410   29.6660 O.2    34  THR34      -0.2863
    108  CB         1.3320    6.1520   29.3990 C.3    34  THR34       0.1794
    109  OG1        1.1610    4.9080   28.6830 O.3    34  THR34      -0.2208
    110  CG2        0.0540    6.4990   30.2900 C.3    34  THR34       0.0378
    111  N         -0.5170    4.4380   34.0560 N.3    58  THR58      -0.1218
    112  CA         0.1190    5.6500   34.4820 C.3    58  THR58       0.1862
    113  C          1.4070    5.8930   33.6980 C.2    58  THR58       0.2287
    114  O          1.9890    4.9740   33.1000 O.2    58  THR58      -0.2866
    115  CB         0.4910    5.5570   35.9970 C.3    58  THR58       0.1770
    116  OG1        1.4780    4.5150   36.1610 O.3    58  THR58      -0.2211
    117  CG2       -0.7520    5.1980   36.8320 C.3    58  THR58       0.0375
    118  N          5.2360    6.2650   33.1090 N.3    60  GLY60      -0.1210
    119  CA         6.4840    5.8420   33.7410 C.3    60  GLY60       0.1956
    120  C          7.4750    7.0060   33.7460 C.2    60  GLY60       0.2611
    121  O          8.3280    7.1130   34.6490 O.2    60  GLY60      -0.2717
    122  N          7.3730    7.8840   32.7480 N.am   61  GLN61      -0.1979
    123  CA         8.2690    9.0570   32.7030 C.3    61  GLN61       0.1601
    124  C          7.7960   10.1370   33.6690 C.2    61  GLN61       0.2287
    125  O          6.6450   10.6250   33.5910 O.2    61  GLN61      -0.2864
    126  CB         8.3530    9.6430   31.2840 C.3    61  GLN61       0.0394
    127  CG         8.7990    8.6510   30.2290 C.3    61  GLN61       0.0908
    128  CD         9.1160    9.3200   28.8850 C.2    61  GLN61       0.2608
    129  OE1        9.6890   10.4510   28.8530 O.2    61  GLN61      -0.2717
    130  NE2        8.7590    8.6480   27.7690 N.am   61  GLN61      -0.0878
    131  N          8.0040   -8.4310   33.5260 N.3   119  ASN119     -0.1225
    132  CA         7.5800   -8.5420   32.1310 C.3   119  ASN119      0.1785
    133  C          8.7520   -8.7170   31.1100 C.2   119  ASN119      0.2597
    134  O          9.9250   -8.5000   31.4370 O.2   119  ASN119     -0.2718
    135  CB         6.6970   -7.2820   31.8070 C.3   119  ASN119      0.1169
    136  CG         5.9630   -7.3480   30.4570 C.2   119  ASN119      0.2627
    137  OD1        5.9730   -6.3770   29.6800 O.2   119  ASN119     -0.2716
    138  ND2        5.2670   -8.4060   30.2050 N.am  119  ASN119     -0.0877
    139  N          8.3610   -9.0670   29.8930 N.am  120  LYS120     -0.1980
    140  CA         9.2530   -9.2530   28.6990 C.3   120  LYS120      0.1596
    141  C         10.0600  -10.5300   28.8030 C.2   120  LYS120      0.2287
    142  O         11.2040  -10.5930   28.3500 O.2   120  LYS120     -0.2864
    143  CB        10.2290   -8.0790   28.5160 C.3   120  LYS120      0.0298
    144  CG         9.4960   -6.7340   28.3790 C.3   120  LYS120      0.0038
    145  CD        10.4020   -5.7000   27.6600 C.3   120  LYS120      0.0206
    146  CE         9.6810   -4.2900   27.6360 C.3   120  LYS120      0.1093
    147  NZ        10.5300   -3.2720   26.9330 N.3   120  LYS120     -0.1314
    148  N          9.6950  -13.0920   27.1130 N.3   122  ASP122     -0.1225
    149  CA         9.8590  -13.6890   25.7650 C.3   122  ASP122      0.1805
    150  C         11.2190  -13.3380   25.1720 C.2   122  ASP122      0.2597
    151  O         11.7400  -14.0760   24.2920 O.2   122  ASP122     -0.2718
    152  CB         8.7490  -13.1950   24.8490 C.3   122  ASP122      0.1424
    153  CG         8.6790  -11.6640   24.7910 C.2   122  ASP122      0.3668
    154  OD1        9.1630  -11.0880   23.7680 O.co2 122  ASP122     -0.2456
    155  OD2        8.1730  -11.0470   25.7830 O.co2 122  ASP122     -0.2456
    156  N         11.8450  -12.2700   25.6600 N.am  123  LEU123     -0.1979
    157  CA        13.1290  -11.8630   25.1470 C.3   123  LEU123      0.1596
    158  C         14.2440  -12.7960   25.5680 C.2   123  LEU123      0.2287
    159  O         14.1840  -13.4190   26.6440 O.2   123  LEU123     -0.2864
    160  CB        13.4680  -10.4280   25.5670 C.3   123  LEU123      0.0297
    161  CG        12.4590   -9.4020   25.0160 C.3   123  LEU123      0.0022
    162  CD1       12.8370   -8.0310   25.5540 C.3   123  LEU123      0.0001
    163  CD2       12.4560   -9.4250   23.4350 C.3   123  LEU123      0.0001
    164  N          4.6200  -12.0380   29.7030 N.3   149  SER149     -0.1202
    165  CA         4.9680  -11.4760   28.3990 C.3   149  SER149      0.2020
    166  C          3.6680  -10.8800   27.8120 C.2   149  SER149      0.2619
    167  O          2.6900  -11.5890   27.5350 O.2   149  SER149     -0.2717
    168  CB         5.5140  -12.5100   27.3880 C.3   149  SER149      0.2103
    169  OG         5.6220  -11.8520   26.1030 O.3   149  SER149     -0.2182
    170  N          3.6300   -9.5770   27.6310 N.am  150  ALA150     -0.1965
    171  CA         2.4790   -8.9440   27.0430 C.3   150  ALA150      0.1728
    172  C          2.5140   -9.2150   25.5460 C.2   150  ALA150      0.2616
    173  O          1.4680   -9.3460   24.9220 O.2   150  ALA150     -0.2715
    174  CB         2.4630   -7.4400   27.3270 C.3   150  ALA150      0.0334
    175  N          3.7270   -9.2960   24.9930 N.am  151  LYS151     -0.1977
    176  CA         3.9260   -9.5630   23.5640 C.3   151  LYS151      0.1596
    177  C          3.3790  -10.9260   23.1570 C.2   151  LYS151      0.2287
    178  O          2.6400  -11.0300   22.1390 O.2   151  LYS151     -0.2864
    179  CB         5.4180   -9.4460   23.1860 C.3   151  LYS151      0.0298
    180  CG         5.6690   -9.7280   21.6620 C.3   151  LYS151      0.0038
    181  CD         6.9780   -9.1730   21.1730 C.3   151  LYS151      0.0206
    182  CE         7.2000   -9.4680   19.6400 C.3   151  LYS151      0.1093
    183  NZ         6.1230   -8.8950   18.7770 N.3   151  LYS151     -0.1314
@<TRIPOS>BOND
     1    76    75    2
     2    77    75   am
     3    75    74    1
     4    74    73    1
     5    68    66   am
     6    73    70    1
     7    66    65    1
     8    66    67    2
     9    65    62    1
    10    60    59    1
    11    70    69    1
    12    70    71    1
    13    69    63   am
    14    61    62    1
    15    61    57   am
    16   183   182    1
    17    47    46    2
    18    62    63    1
    19    63    64    2
    20    59    56    1
    21    56    57    1
    22    56    55    1
    23   182   181    1
    24    57    58    2
    25    71    78   am
    26    71    72    2
    27    46    55   am
    28    46    45    1
    29    78    79    1
    30    81    80    2
    31    51    53   ar
    32    51    49   ar
    33    96    97    1
    34    96    95    1
    35    44    45    1
    36    53    54   ar
    37   181   180    1
    38    45    48    1
    39    97    98    1
    40    48    49    1
    41    80    79    1
    42    80    90   am
    43    79    82    1
    44   180   179    1
    45    49    50   ar
    46    95    94    1
    47    94    91    1
    48   178   177    2
    49    82    83    1
    50    54    52   ar
    51    90    91    1
    52    91    92    1
    53    50    52   ar
    54   177   176    1
    55   179   176    1
    56   163   161    1
    57    83    84   ar
    58    83    85   ar
    59    84    86   ar
    60   176   175    1
    61   154   153   ar
    62    92    99   am
    63    92    93    2
    64   151   150    2
    65    99   100    1
    66    85    87   ar
    67    86    88   ar
    68   153   152    1
    69   153   155   ar
    70   152   149    1
    71   173   172    2
    72   175   172   am
    73   161   162    1
    74   161   160    1
    75   157   160    1
    76   157   158    1
    77   157   156    1
    78   150   156   am
    79   150   149    1
    80    43    42    1
    81   172   171    1
    82   158   159    2
    83    87    88   ar
    84   149   148    1
    85    88    89    1
    86   102   101    2
    87   100   103    1
    88   100   101    1
    89   169   168    1
    90    42    39    1
    91   101   104   am
    92    39    38    1
    93    39    40    1
    94    37    35    1
    95   147   146    1
    96    41    40    2
    97   171   174    1
    98   171   170    1
    99   168   165    1
   100    38    33   am
   101   167   166    2
   102   104   105    1
   103    34    33    2
   104   170   166   am
   105   146   145    1
   106   145   144    1
   107    35    36    1
   108    35    32    1
   109   130   128   am
   110   166   165    1
   111    33    32    1
   112   105   106    1
   113   105   108    1
   114   142   141    2
   115   144   143    1
   116   165   164    1
   117   143   140    1
   118    10     9    2
   119    32    31    1
   120   109   108    1
   121   140   141    1
   122   140   139    1
   123   129   128    2
   124     8     9    1
   125     8     7    1
   126   128   127    1
   127   106   107    2
   128     9    11   am
   129   108   110    1
   130    19    18    1
   131    19    20    1
   132     6     5    1
   133    31    24   am
   134   137   136    2
   135     7     3   am
   136    21    20    2
   137   139   133   am
   138    18    13   am
   139    20    22   am
   140   138   136   am
   141   127   126    1
   142   136   135    1
   143    13    14    2
   144    13    12    1
   145    11    12    1
   146    24    25    2
   147    24    23    1
   148     3     4    2
   149     3     2    1
   150    22    23    1
   151     5     2    1
   152    12    15    1
   153   133   134    2
   154   133   132    1
   155   126   123    1
   156     2     1    1
   157    23    26    1
   158   135   132    1
   159   132   131    1
   160    26    27    1
   161    15    16    1
   162    15    17    1
   163   123   122    1
   164   123   124    1
   165   122   120   am
   166    30    29    1
   167   114   113    2
   168   118   119    1
   169    27    28    1
   170    29    28    1
   171   125   124    2
   172   113   112    1
   173   119   120    1
   174   120   121    2
   175   111   112    1
   176   112   115    1
   177   115   116    1
   178   115   117    1
