@<TRIPOS>MOLECULE
tmp/1vg9F00.pdb
 137 131 0 0 0
SMALL
GASTEIGER

@<TRIPOS>ATOM
      1  N         74.7560   72.8240   83.7240 N.3    12  SER12      -0.1202
      2  CA        74.3160   72.5450   85.0890 C.3    12  SER12       0.2020
      3  C         74.9590   71.2310   85.5280 C.2    12  SER12       0.2619
      4  O         75.2730   70.3790   84.7050 O.2    12  SER12      -0.2717
      5  CB        72.7960   72.3410   85.1460 C.3    12  SER12       0.2103
      6  OG        72.0990   73.4580   84.6610 O.3    12  SER12      -0.2182
      7  N         75.1280   71.0640   86.8270 N.am   13  GLY13      -0.1942
      8  CA        75.6840   69.8260   87.3290 C.3    13  GLY13       0.2014
      9  C         77.1660   69.5550   87.1600 C.2    13  GLY13       0.2639
     10  O         77.5880   68.4600   87.5260 O.2    13  GLY13      -0.2714
     11  N         77.9620   70.4930   86.6250 N.am   14  VAL14      -0.1963
     12  CA        79.3950   70.2260   86.4740 C.3    14  VAL14       0.1727
     13  C         80.2310   70.5890   87.7030 C.2    14  VAL14       0.2617
     14  O         81.3760   70.1430   87.8350 O.2    14  VAL14      -0.2715
     15  CB        80.0110   70.9300   85.2390 C.3    14  VAL14       0.0290
     16  CG1       79.3610   70.4100   83.9610 C.3    14  VAL14       0.0023
     17  CG2       79.8870   72.4220   85.3630 C.3    14  VAL14       0.0023
     18  N         79.6720   71.3970   88.6000 N.am   15  GLY15      -0.1940
     19  CA        80.4050   71.7590   89.8030 C.3    15  GLY15       0.2014
     20  C         80.7580   73.2260   89.9210 C.2    15  GLY15       0.2639
     21  O         81.5790   73.6200   90.7620 O.2    15  GLY15      -0.2714
     22  N         80.1350   74.0490   89.0900 N.am   16  LYS16      -0.1963
     23  CA        80.4180   75.4770   89.1290 C.3    16  LYS16       0.1728
     24  C         80.2410   76.0780   90.5310 C.2    16  LYS16       0.2617
     25  O         81.1810   76.6490   91.1010 O.2    16  LYS16      -0.2715
     26  CB        79.5400   76.1990   88.0930 C.3    16  LYS16       0.0311
     27  CG        79.7800   75.6630   86.6730 C.3    16  LYS16       0.0038
     28  CD        79.1420   76.5080   85.5940 C.3    16  LYS16       0.0206
     29  CE        77.6190   76.5750   85.7450 C.3    16  LYS16       0.1093
     30  NZ        76.9950   75.2430   85.8080 N.3    16  LYS16      -0.1314
     31  N         79.0450   75.9310   91.0910 N.am   17  THR17      -0.1937
     32  CA        78.7530   76.4700   92.4050 C.3    17  THR17       0.2028
     33  C         79.6550   75.8430   93.4640 C.2    17  THR17       0.2642
     34  O         80.1170   76.5360   94.3830 O.2    17  THR17      -0.2714
     35  CB        77.2690   76.2400   92.7610 C.3    17  THR17       0.1808
     36  OG1       76.4570   76.9900   91.8550 O.3    17  THR17      -0.2208
     37  CG2       76.9710   76.6760   94.1930 C.3    17  THR17       0.0379
     38  N         79.9070   74.5400   93.3490 N.am   18  SER18      -0.1949
     39  CA        80.7870   73.8700   94.3030 C.3    18  SER18       0.1924
     40  C         82.2070   74.4210   94.2270 C.2    18  SER18       0.2314
     41  O         82.8370   74.6420   95.2560 O.2    18  SER18      -0.2863
     42  CB        80.8320   72.3720   94.0430 C.3    18  SER18       0.2116
     43  OG        79.5920   71.7750   94.3500 O.3    18  SER18      -0.2180
     44  N         82.6040   71.8270  101.1360 N.3    28  PHE28      -0.1227
     45  CA        81.8330   71.1190  100.1180 C.3    28  PHE28       0.1736
     46  C         80.5270   70.5850  100.7220 C.2    28  PHE28       0.2596
     47  O         80.4500   70.3660  101.9290 O.2    28  PHE28      -0.2718
     48  CB        82.6530   69.9540   99.5680 C.3    28  PHE28       0.0547
     49  CG        81.9890   69.2310   98.4390 C.ar   28  PHE28      -0.0202
     50  CD1       81.9010   69.8210   97.1820 C.ar   28  PHE28      -0.0042
     51  CD2       81.4380   67.9660   98.6340 C.ar   28  PHE28      -0.0042
     52  CE1       81.2730   69.1610   96.1280 C.ar   28  PHE28      -0.0003
     53  CE2       80.8040   67.2900   97.5880 C.ar   28  PHE28      -0.0003
     54  CZ        80.7220   67.8900   96.3290 C.ar   28  PHE28      -0.0000
     55  N         79.5110   70.3640   99.8880 N.am   29  SER29      -0.1938
     56  CA        78.2180   69.8590  100.3750 C.3    29  SER29       0.2055
     57  C         77.5980   68.7690   99.4870 C.2    29  SER29       0.2643
     58  O         77.7170   68.8070   98.2620 O.2    29  SER29      -0.2714
     59  CB        77.2220   71.0180  100.5110 C.3    29  SER29       0.2130
     60  OG        77.7170   72.0400  101.3660 O.3    29  SER29      -0.2179
     61  N         76.9110   67.8140  100.1120 N.am   30  ASN30      -0.1971
     62  CA        76.2780   66.7050   99.3890 C.3    30  ASN30       0.1688
     63  C         77.2800   65.9930   98.4890 C.2    30  ASN30       0.2292
     64  O         77.0500   65.8450   97.2850 O.2    30  ASN30      -0.2864
     65  CB        75.0890   67.1870   98.5320 C.3    30  ASN30       0.1181
     66  CG        73.8270   67.4490   99.3540 C.2    30  ASN30       0.2629
     67  OD1       73.4440   66.6390  100.2020 O.2    30  ASN30      -0.2716
     68  ND2       73.1670   68.5750   99.0890 N.am   30  ASN30      -0.0877
     69  N         75.8410   81.5210   88.7510 N.3    54  THR54      -0.1218
     70  CA        74.7450   81.6170   87.7970 C.3    54  THR54       0.1862
     71  C         73.3440   81.5720   88.4300 C.2    54  THR54       0.2287
     72  O         72.3550   81.7430   87.7400 O.2    54  THR54      -0.2866
     73  CB        74.8100   80.4500   86.8050 C.3    54  THR54       0.1770
     74  OG1       74.6280   79.2160   87.5230 O.3    54  THR54      -0.2211
     75  CG2       76.1410   80.4270   86.0870 C.3    54  THR54       0.0375
     76  N         71.3870   78.7280   84.0920 N.3    58  GLU58      -0.1245
     77  CA        71.9060   78.0310   82.9250 C.3    58  GLU58       0.1567
     78  C         71.1600   76.7180   82.6940 C.2    58  GLU58       0.2260
     79  O         71.2620   76.1330   81.6130 O.2    58  GLU58      -0.2867
     80  CB        73.4200   77.7610   83.0430 C.3    58  GLU58       0.0388
     81  CG        73.8470   76.5380   83.8820 C.3    58  GLU58       0.1160
     82  CD        73.8110   76.7860   85.3830 C.2    58  GLU58       0.3649
     83  OE1       74.3520   75.9400   86.1380 O.co2  58  GLU58      -0.2457
     84  OE2       73.2390   77.8230   85.8090 O.co2  58  GLU58      -0.2457
     85  N         86.3840   69.3540   85.8920 N.3   115  ASN115     -0.1225
     86  CA        86.0910   68.9920   87.2680 C.3   115  ASN115      0.1785
     87  C         85.6330   67.5610   87.5560 C.2   115  ASN115      0.2597
     88  O         85.3520   66.7790   86.6430 O.2   115  ASN115     -0.2718
     89  CB        85.0400   69.9660   87.8140 C.3   115  ASN115      0.1169
     90  CG        84.8790   69.8910   89.3170 C.2   115  ASN115      0.2627
     91  OD1       85.8540   69.8290   90.0460 O.2   115  ASN115     -0.2716
     92  ND2       83.6420   69.8910   89.7860 N.am  115  ASN115     -0.0877
     93  N         85.5750   67.2450   88.8500 N.am  116  LYS116     -0.1980
     94  CA        85.1610   65.9390   89.3560 C.3   116  LYS116      0.1596
     95  C         86.1360   64.8070   89.0780 C.2   116  LYS116      0.2287
     96  O         85.7240   63.6570   88.8840 O.2   116  LYS116     -0.2864
     97  CB        83.7800   65.5590   88.8070 C.3   116  LYS116      0.0298
     98  CG        82.6860   66.5260   89.2210 C.3   116  LYS116      0.0038
     99  CD        81.3380   65.9460   88.8420 C.3   116  LYS116      0.0206
    100  CE        80.2260   66.9280   89.1460 C.3   116  LYS116      0.1093
    101  NZ        78.9350   66.5160   88.5420 N.3   116  LYS116     -0.1314
    102  N         87.8600   63.3460   91.0280 N.3   118  ASP118     -0.1225
    103  CA        87.8910   62.3910   92.1270 C.3   118  ASP118      0.1805
    104  C         87.0310   61.1780   91.7720 C.2   118  ASP118      0.2597
    105  O         87.1600   60.1230   92.3810 O.2   118  ASP118     -0.2718
    106  CB        87.3670   63.0220   93.4170 C.3   118  ASP118      0.1424
    107  CG        85.9470   63.5300   93.2760 C.2   118  ASP118      0.3668
    108  OD1       85.7570   64.6220   92.6960 O.co2 118  ASP118     -0.2456
    109  OD2       85.0240   62.8290   93.7300 O.co2 118  ASP118     -0.2456
    110  N         86.1490   61.3290   90.7910 N.am  119  LEU119     -0.1979
    111  CA        85.2810   60.2310   90.3760 C.3   119  LEU119      0.1596
    112  C         86.0440   59.2790   89.4560 C.2   119  LEU119      0.2287
    113  O         86.8600   59.7110   88.6530 O.2   119  LEU119     -0.2864
    114  CB        84.0430   60.7860   89.6660 C.3   119  LEU119      0.0297
    115  CG        82.6840   60.7890   90.3850 C.3   119  LEU119      0.0022
    116  CD1       82.8660   60.9330   91.8800 C.3   119  LEU119      0.0001
    117  CD2       81.8050   61.9170   89.8140 C.3   119  LEU119      0.0001
    118  N         88.7260   69.0040   91.4710 N.3   145  SER145     -0.1202
    119  CA        87.7460   68.2650   92.2440 C.3   145  SER145      0.2020
    120  C         87.2720   69.1880   93.3560 C.2   145  SER145      0.2619
    121  O         88.0120   69.4630   94.2980 O.2   145  SER145     -0.2717
    122  CB        88.3530   67.0170   92.8700 C.3   145  SER145      0.2103
    123  OG        87.4020   66.3950   93.7080 O.3   145  SER145     -0.2182
    124  N         86.0480   69.6820   93.2560 N.am  146  ALA146     -0.1965
    125  CA        85.5370   70.5610   94.2960 C.3   146  ALA146      0.1728
    126  C         85.3100   69.7550   95.5700 C.2   146  ALA146      0.2616
    127  O         85.5240   70.2550   96.6740 O.2   146  ALA146     -0.2715
    128  CB        84.2360   71.2100   93.8430 C.3   146  ALA146      0.0334
    129  N         84.8960   68.4980   95.4060 N.am  147  LYS147     -0.1977
    130  CA        84.6050   67.6040   96.5330 C.3   147  LYS147      0.1596
    131  C         85.7990   67.3110   97.4180 C.2   147  LYS147      0.2287
    132  O         85.6770   67.3380   98.6390 O.2   147  LYS147     -0.2864
    133  CB        84.0030   66.2810   96.0270 C.3   147  LYS147      0.0298
    134  CG        83.8010   65.1990   97.0960 C.3   147  LYS147      0.0038
    135  CD        82.7400   64.1730   96.6560 C.3   147  LYS147      0.0206
    136  CE        82.6510   62.9530   97.5820 C.3   147  LYS147      0.1093
    137  NZ        83.8570   62.0690   97.4850 N.3   147  LYS147     -0.1314
@<TRIPOS>BOND
     1    79    78    2
     2    78    77    1
     3    77    80    1
     4    77    76    1
     5    80    81    1
     6     1     2    1
     7    81    82    1
     8    16    15    1
     9     6     5    1
    10     4     3    2
    11     2     5    1
    12     2     3    1
    13    15    17    1
    14    15    12    1
    15    82    84   ar
    16    82    83   ar
    17     3     7   am
    18    28    29    1
    19    28    27    1
    20    29    30    1
    21    85    86    1
    22    75    73    1
    23    12    11    1
    24    12    13    1
    25    11     9   am
    26    88    87    2
    27    27    26    1
    28    73    74    1
    29    73    70    1
    30     7     8    1
    31     9     8    1
    32     9    10    2
    33    86    87    1
    34    86    89    1
    35    87    93   am
    36    13    14    2
    37    13    18   am
    38    72    71    2
    39    70    71    1
    40    70    69    1
    41    89    90    1
    42    26    23    1
    43   101   100    1
    44    18    19    1
    45   113   112    2
    46    97    98    1
    47    97    94    1
    48    99   100    1
    49    99    98    1
    50    93    94    1
    51    96    95    2
    52    95    94    1
    53    22    23    1
    54    22    20   am
    55    23    24    1
    56    90    92   am
    57    90    91    2
    58   112   111    1
    59   114   111    1
    60   114   115    1
    61    19    20    1
    62   117   115    1
    63    20    21    2
    64   111   110    1
    65   115   116    1
    66    24    31   am
    67    24    25    2
    68   110   104   am
    69   102   103    1
    70    31    32    1
    71   118   119    1
    72   104   103    1
    73   104   105    2
    74    36    35    1
    75   103   106    1
    76   119   122    1
    77   119   120    1
    78    32    35    1
    79    32    33    1
    80   108   107   ar
    81    35    37    1
    82   122   123    1
    83   124   120   am
    84   124   125    1
    85   107   106    1
    86   107   109   ar
    87    38    33   am
    88    38    39    1
    89   120   121    2
    90    33    34    2
    91   128   125    1
    92    42    39    1
    93    42    43    1
    94    40    39    1
    95    40    41    2
    96   125   126    1
    97   129   126   am
    98   129   130    1
    99   126   127    2
   100   133   130    1
   101   133   134    1
   102    52    54   ar
   103    52    50   ar
   104    54    53   ar
   105   130   131    1
   106   135   134    1
   107   135   136    1
   108    50    49   ar
   109    64    63    2
   110   131   132    2
   111   137   136    1
   112    53    51   ar
   113    58    57    2
   114    49    51   ar
   115    49    48    1
   116    63    62    1
   117    65    66    1
   118    65    62    1
   119    68    66   am
   120    66    67    2
   121    62    61    1
   122    57    61   am
   123    57    56    1
   124    48    45    1
   125    55    56    1
   126    55    46   am
   127    45    46    1
   128    45    44    1
   129    56    59    1
   130    59    60    1
   131    46    47    2
