@<TRIPOS>MOLECULE
tmp/1vgnA00.pdb
 104 99 0 0 0
SMALL
GASTEIGER

@<TRIPOS>ATOM
      1  N         22.2650   11.4420  127.4500 N.3    22  VAL22      -0.1245
      2  CA        21.5650   12.5970  128.0110 C.3    22  VAL22       0.1561
      3  C         20.3420   12.9570  127.1640 C.2    22  VAL22       0.2260
      4  O         20.4700   13.3160  125.9940 O.2    22  VAL22      -0.2867
      5  CB        22.5020   13.8200  128.1010 C.3    22  VAL22       0.0252
      6  CG1       21.7410   15.0230  128.6370 C.3    22  VAL22       0.0019
      7  CG2       23.6840   13.4980  129.0050 C.3    22  VAL22       0.0019
      8  N         20.3950   14.9860  123.8930 N.3    25  TRP25      -0.1241
      9  CA        21.7330   15.3640  123.4560 C.3    25  TRP25       0.1605
     10  C         22.5630   14.1500  123.0540 C.2    25  TRP25       0.2264
     11  O         23.7140   14.2850  122.6330 O.2    25  TRP25      -0.2867
     12  CB        22.4470   16.1430  124.5620 C.3    25  TRP25       0.0550
     13  CG        21.6740   17.3430  125.0160 C.ar   25  TRP25       0.0003
     14  CD1       20.7630   17.3990  126.0350 C.ar   25  TRP25       0.0946
     15  CD2       21.6960   18.6470  124.4250 C.ar   25  TRP25       0.0152
     16  NE1       20.2160   18.6580  126.1110 N.ar   25  TRP25      -0.2442
     17  CE2       20.7710   19.4430  125.1350 C.ar   25  TRP25       0.0810
     18  CE3       22.4080   19.2180  123.3620 C.ar   25  TRP25       0.0012
     19  CZ2       20.5370   20.7850  124.8160 C.ar   25  TRP25       0.0191
     20  CZ3       22.1770   20.5520  123.0430 C.ar   25  TRP25       0.0001
     21  CH2       21.2470   21.3210  123.7700 C.ar   25  TRP25       0.0015
     22  N         26.9140   12.2410  125.5170 N.3    28  VAL28      -0.1245
     23  CA        27.6950   13.4380  125.8080 C.3    28  VAL28       0.1561
     24  C         28.8830   13.1690  126.7280 C.2    28  VAL28       0.2260
     25  O         28.7420   12.5100  127.7580 O.2    28  VAL28      -0.2867
     26  CB        26.8080   14.5130  126.4770 C.3    28  VAL28       0.0252
     27  CG1       27.5660   15.8240  126.5780 C.3    28  VAL28       0.0019
     28  CG2       25.5200   14.6910  125.6920 C.3    28  VAL28       0.0019
     29  N         29.9260   10.6980  135.7360 N.3    48  PHE48      -0.1241
     30  CA        28.4890   10.4390  135.8670 C.3    48  PHE48       0.1605
     31  C         28.1670    9.3170  136.8470 C.2    48  PHE48       0.2264
     32  O         27.2800    9.4470  137.6920 O.2    48  PHE48      -0.2867
     33  CB        27.8610   10.0450  134.5280 C.3    48  PHE48       0.0534
     34  CG        27.8650   11.1250  133.4940 C.ar   48  PHE48      -0.0203
     35  CD1       28.9780   11.3270  132.6850 C.ar   48  PHE48      -0.0042
     36  CD2       26.7280   11.8950  133.2750 C.ar   48  PHE48      -0.0042
     37  CE1       28.9540   12.2750  131.6670 C.ar   48  PHE48      -0.0003
     38  CE2       26.6930   12.8480  132.2590 C.ar   48  PHE48      -0.0003
     39  CZ        27.8080   13.0370  131.4520 C.ar   48  PHE48      -0.0000
     40  N         23.7650   19.0070  138.8320 N.3    76  HIS76      -0.1241
     41  CA        23.4580   18.0070  137.8130 C.3    76  HIS76       0.1621
     42  C         24.2960   16.7510  138.0300 C.2    76  HIS76       0.2264
     43  O         25.4610   16.8300  138.4120 O.2    76  HIS76      -0.2867
     44  CB        23.6810   18.5940  136.4170 C.3    76  HIS76       0.0745
     45  CG        22.5810   19.5080  135.9730 C.ar   76  HIS76       0.0817
     46  ND1       22.7670   20.5080  135.0450 N.ar   76  HIS76      -0.2268
     47  CD2       21.2730   19.5650  136.3260 C.ar   76  HIS76       0.1154
     48  CE1       21.6270   21.1420  134.8430 C.ar   76  HIS76       0.1986
     49  NE2       20.7040   20.5890  135.6100 N.ar   76  HIS76      -0.2212
     50  N         26.0390   14.9480  136.3520 N.3    78  ASP78      -0.1239
     51  CA        27.3190   14.7810  135.6800 C.3    78  ASP78       0.1674
     52  C         28.4810   15.3880  136.4640 C.2    78  ASP78       0.2266
     53  O         29.6310   15.3140  136.0420 O.2    78  ASP78      -0.2867
     54  CB        27.2520   15.3300  134.2420 C.3    78  ASP78       0.1410
     55  CG        27.2010   16.8510  134.1680 C.2    78  ASP78       0.3668
     56  OD1       26.4420   17.4870  134.9340 O.co2  78  ASP78      -0.2456
     57  OD2       27.9180   17.4110  133.3100 O.co2  78  ASP78      -0.2456
     58  N         24.0270   28.5770  133.8630 N.3   136  HIS136     -0.1241
     59  CA        23.6420   27.2410  133.4160 C.3   136  HIS136      0.1621
     60  C         22.6680   26.6930  134.4580 C.2   136  HIS136      0.2264
     61  O         21.6610   26.0740  134.1250 O.2   136  HIS136     -0.2867
     62  CB        24.8850   26.3570  133.3300 C.3   136  HIS136      0.0745
     63  CG        24.5860   24.9010  133.1780 C.ar  136  HIS136      0.0817
     64  ND1       24.0010   24.3740  132.0480 N.ar  136  HIS136     -0.2268
     65  CD2       24.8050   23.8580  134.0120 C.ar  136  HIS136      0.1154
     66  CE1       23.8750   23.0680  132.1920 C.ar  136  HIS136      0.1986
     67  NE2       24.3550   22.7300  133.3740 N.ar  136  HIS136     -0.2212
     68  N         29.9790   23.4080  133.5900 N.3   155  CYS155     -0.1235
     69  CA        28.9140   23.5100  132.6100 C.3   155  CYS155      0.1677
     70  C         28.4150   24.9390  132.4490 C.2   155  CYS155      0.2270
     71  O         27.3630   25.1730  131.8560 O.2   155  CYS155     -0.2867
     72  CB        27.7700   22.5800  133.0020 C.3   155  CYS155      0.0956
     73  SG        28.3510   20.9000  133.3890 S.3   155  CYS155     -0.0801
     74  N         29.6470   27.5840  128.0200 N.3   158  LYS158     -0.1245
     75  CA        28.9360   27.0700  126.8540 C.3   158  LYS158      0.1561
     76  C         29.1780   27.8830  125.5740 C.2   158  LYS158      0.2260
     77  O         28.2500   28.4700  125.0130 O.2   158  LYS158     -0.2867
     78  CB        27.4330   26.9140  127.1200 C.3   158  LYS158      0.0271
     79  CG        27.0720   25.9010  128.1990 C.3   158  LYS158      0.0035
     80  CD        27.1990   24.4750  127.6780 C.3   158  LYS158      0.0206
     81  CE        26.3400   23.5100  128.4910 C.3   158  LYS158      0.1093
     82  NZ        26.0240   22.3200  127.7110 N.3   158  LYS158     -0.1314
     83  N         23.1250   24.8600  125.4960 N.3   163  GLY163     -0.1210
     84  CA        22.7500   23.5030  125.8580 C.3   163  GLY163      0.1956
     85  C         21.4750   23.3060  126.6590 C.2   163  GLY163      0.2611
     86  O         20.4360   23.8850  126.3530 O.2   163  GLY163     -0.2717
     87  N         21.5670   22.4720  127.6910 N.am  164  ASN164     -0.1974
     88  CA        20.4390   22.1400  128.5640 C.3   164  ASN164      0.1688
     89  C         19.9680   23.3320  129.3910 C.2   164  ASN164      0.2292
     90  O         20.6060   23.6940  130.3790 O.2   164  ASN164     -0.2864
     91  CB        20.8420   21.0020  129.5060 C.3   164  ASN164      0.1181
     92  CG        19.6550   20.3830  130.2210 C.2   164  ASN164      0.2629
     93  OD1       18.6000   21.0030  130.3540 O.2   164  ASN164     -0.2716
     94  ND2       19.8300   19.1550  130.6990 N.am  164  ASN164     -0.0877
     95  N         31.6940   20.2320  128.6430 N.3   194  HIS194     -0.1241
     96  CA        31.2530   19.5730  127.4210 C.3   194  HIS194      0.1621
     97  C         31.8800   20.0440  126.1140 C.2   194  HIS194      0.2264
     98  O         31.3670   19.7480  125.0350 O.2   194  HIS194     -0.2867
     99  CB        29.7330   19.6760  127.3350 C.3   194  HIS194      0.0745
    100  CG        29.0370   19.1990  128.5700 C.ar  194  HIS194      0.0817
    101  ND1       29.1020   17.8920  129.0010 N.ar  194  HIS194     -0.2268
    102  CD2       28.2890   19.8600  129.4850 C.ar  194  HIS194      0.1154
    103  CE1       28.4240   17.7680  130.1290 C.ar  194  HIS194      0.1986
    104  NE2       27.9210   18.9480  130.4430 N.ar  194  HIS194     -0.2212
@<TRIPOS>BOND
     1    11    10    2
     2    20    18   ar
     3    20    21   ar
     4    10     9    1
     5    18    15   ar
     6     9     8    1
     7     9    12    1
     8    21    19   ar
     9    15    13   ar
    10    15    17   ar
    11    12    13    1
    12    19    17   ar
    13    77    76    2
    14    13    14   ar
    15    98    97    2
    16    17    16   ar
    17    83    84    1
    18    22    23    1
    19    76    75    1
    20    28    26    1
    21    23    26    1
    22    23    24    1
    23    84    85    1
    24     4     3    2
    25    14    16   ar
    26    97    96    1
    27    86    85    2
    28    26    27    1
    29    85    87   am
    30    24    25    2
    31    75    78    1
    32    75    74    1
    33    78    79    1
    34     3     2    1
    35    99    96    1
    36    99   100    1
    37    96    95    1
    38     1     2    1
    39    80    79    1
    40    80    81    1
    41    87    88    1
    42    82    81    1
    43     2     5    1
    44     5     6    1
    45     5     7    1
    46    88    89    1
    47    88    91    1
    48   100   101   ar
    49   100   102   ar
    50   101   103   ar
    51    89    90    2
    52   102   104   ar
    53    91    92    1
    54   103   104   ar
    55    92    93    2
    56    92    94   am
    57    39    37   ar
    58    39    38   ar
    59    37    35   ar
    60    71    70    2
    61    64    66   ar
    62    64    63   ar
    63    66    67   ar
    64    38    36   ar
    65    70    69    1
    66    69    72    1
    67    69    68    1
    68    35    34   ar
    69    72    73    1
    70    63    62    1
    71    63    65   ar
    72    36    34   ar
    73    57    55   ar
    74    62    59    1
    75    67    65   ar
    76    59    58    1
    77    59    60    1
    78    34    33    1
    79    61    60    2
    80    55    54    1
    81    55    56   ar
    82    54    51    1
    83    33    30    1
    84    48    46   ar
    85    48    49   ar
    86    46    45   ar
    87    49    47   ar
    88    51    50    1
    89    51    52    1
    90    29    30    1
    91    30    31    1
    92    45    47   ar
    93    45    44    1
    94    53    52    2
    95    44    41    1
    96    31    32    2
    97    41    42    1
    98    41    40    1
    99    42    43    2
