@<TRIPOS>MOLECULE
tmp/1vgoA03.pdb
 89 85 0 0 0
SMALL
GASTEIGER

@<TRIPOS>ATOM
      1  N         17.5830    4.8470   62.5610 N.3   139  TRP139     -0.1241
      2  CA        18.2820    6.0480   62.1470 C.3   139  TRP139      0.1605
      3  C         19.3450    5.6470   61.1120 C.2   139  TRP139      0.2264
      4  O         19.4720    6.2830   60.0720 O.2   139  TRP139     -0.2867
      5  CB        18.9720    6.7010   63.3560 C.3   139  TRP139      0.0550
      6  CG        19.8890    7.8300   62.9730 C.ar  139  TRP139      0.0003
      7  CD1       19.5420    9.1270   62.7370 C.ar  139  TRP139      0.0946
      8  CD2       21.2890    7.7340   62.6960 C.ar  139  TRP139      0.0152
      9  NE1       20.6360    9.8440   62.3250 N.ar  139  TRP139     -0.2442
     10  CE2       21.7210    9.0120   62.2890 C.ar  139  TRP139      0.0810
     11  CE3       22.2150    6.6880   62.7450 C.ar  139  TRP139      0.0012
     12  CZ2       23.0500    9.2760   61.9350 C.ar  139  TRP139      0.0191
     13  CZ3       23.5370    6.9480   62.3930 C.ar  139  TRP139      0.0001
     14  CH2       23.9410    8.2330   61.9900 C.ar  139  TRP139      0.0015
     15  N         19.4670    6.5470   57.2050 N.3   143  THR143     -0.1218
     16  CA        20.6130    7.2940   56.7500 C.3   143  THR143      0.1862
     17  C         21.2200    6.5940   55.5450 C.2   143  THR143      0.2287
     18  O         21.7550    7.2460   54.6530 O.2   143  THR143     -0.2866
     19  CB        21.6510    7.4150   57.8660 C.3   143  THR143      0.1770
     20  OG1       21.0480    8.0580   58.9940 O.3   143  THR143     -0.2211
     21  CG2       22.8420    8.2430   57.4060 C.3   143  THR143      0.0375
     22  N         19.3530    7.5530   52.6620 N.3   146  PHE146     -0.1227
     23  CA        19.7200    8.9070   52.2820 C.3   146  PHE146      0.1736
     24  C         20.9050    8.8520   51.3300 C.2   146  PHE146      0.2595
     25  O         20.9860    9.6020   50.3560 O.2   146  PHE146     -0.2718
     26  CB        20.1160    9.7230   53.5050 C.3   146  PHE146      0.0547
     27  CG        20.7530   11.0500   53.1600 C.ar  146  PHE146     -0.0202
     28  CD1       20.0670   11.9840   52.3660 C.ar  146  PHE146     -0.0042
     29  CD2       22.0390   11.3580   53.6070 C.ar  146  PHE146     -0.0042
     30  CE1       20.6530   13.1960   52.0260 C.ar  146  PHE146     -0.0003
     31  CE2       22.6390   12.5720   53.2730 C.ar  146  PHE146     -0.0003
     32  CZ        21.9450   13.4960   52.4800 C.ar  146  PHE146     -0.0000
     33  N         21.8380    7.9650   51.6470 N.am  147  LEU147     -0.1980
     34  CA        23.0290    7.7720   50.8380 C.3   147  LEU147      0.1596
     35  C         22.6280    7.2240   49.4610 C.2   147  LEU147      0.2287
     36  O         23.2750    7.5200   48.4660 O.2   147  LEU147     -0.2864
     37  CB        23.9960    6.8330   51.5760 C.3   147  LEU147      0.0297
     38  CG        25.2200    7.4780   52.2710 C.3   147  LEU147      0.0022
     39  CD1       24.9560    8.9370   52.6390 C.3   147  LEU147      0.0001
     40  CD2       25.6070    6.6590   53.4990 C.3   147  LEU147      0.0001
     41  N         22.2320   16.5660   54.3160 N.3   184  THR184     -0.1218
     42  CA        23.1600   15.8300   55.1470 C.3   184  THR184      0.1862
     43  C         23.0390   16.2780   56.5990 C.2   184  THR184      0.2287
     44  O         23.3050   15.5110   57.5230 O.2   184  THR184     -0.2866
     45  CB        24.5970   16.0260   54.6330 C.3   184  THR184      0.1770
     46  OG1       24.6920   15.4750   53.3110 O.3   184  THR184     -0.2211
     47  CG2       25.6050   15.3250   55.5480 C.3   184  THR184      0.0375
     48  N         20.1830   14.1010   59.2610 N.3   187  PRO187     -0.2102
     49  CA        20.5940   12.9680   60.0920 C.3   187  PRO187      0.1504
     50  C         21.5290   13.3720   61.2430 C.2   187  PRO187      0.2575
     51  O         21.4360   12.8400   62.3500 O.2   187  PRO187     -0.2718
     52  CB        21.2830   12.0330   59.0900 C.3   187  PRO187      0.0282
     53  CG        21.6020   12.9200   57.9000 C.3   187  PRO187      0.0208
     54  CD        20.4000   13.8020   57.8350 C.3   187  PRO187      0.0893
     55  N         22.4250   14.3190   60.9810 N.am  188  ILE188     -0.1980
     56  CA        23.3760   14.7680   61.9890 C.3   188  ILE188      0.1595
     57  C         22.6930   15.4970   63.1400 C.2   188  ILE188      0.2287
     58  O         22.9970   15.2390   64.3020 O.2   188  ILE188     -0.2864
     59  CB        24.4560   15.6640   61.3470 C.3   188  ILE188      0.0276
     60  CG1       25.2240   14.8390   60.3080 C.3   188  ILE188      0.0022
     61  CG2       25.4180   16.2090   62.4210 C.3   188  ILE188      0.0022
     62  CD1       26.2770   15.6090   59.5400 C.3   188  ILE188      0.0001
     63  N         20.6920   12.8430   65.2980 N.3   191  ILE191     -0.1231
     64  CA        21.5450   11.9970   66.1260 C.3   191  ILE191      0.1692
     65  C         22.2310   12.7340   67.2870 C.2   191  ILE191      0.2591
     66  O         22.5950   12.1190   68.2860 O.2   191  ILE191     -0.2718
     67  CB        22.6200   11.2760   65.2500 C.3   191  ILE191      0.0266
     68  CG1       23.1910   10.0670   65.9940 C.3   191  ILE191      0.0019
     69  CG2       23.7420   12.2340   64.8970 C.3   191  ILE191      0.0020
     70  CD1       22.1450    9.0490   66.3790 C.3   191  ILE191      0.0001
     71  N         22.4150   14.0400   67.1600 N.am  192  VAL192     -0.1980
     72  CA        23.0400   14.8070   68.2360 C.3   192  VAL192      0.1595
     73  C         21.9890   15.6290   68.9890 C.2   192  VAL192      0.2287
     74  O         22.3100   16.3460   69.9380 O.2   192  VAL192     -0.2864
     75  CB        24.1240   15.7730   67.6900 C.3   192  VAL192      0.0276
     76  CG1       25.1660   14.9920   66.9180 C.3   192  VAL192      0.0022
     77  CG2       23.4850   16.8330   66.8050 C.3   192  VAL192      0.0022
     78  N         22.0750   11.8150   70.9780 N.3   197  ALA197     -0.1245
     79  CA        23.0220   12.0670   72.0620 C.3   197  ALA197      0.1562
     80  C         22.5960   13.1630   73.0260 C.2   197  ALA197      0.2260
     81  O         23.1600   13.2800   74.1060 O.2   197  ALA197     -0.2867
     82  CB        24.3880   12.3960   71.4920 C.3   197  ALA197      0.0290
     83  N         23.0210   16.4530   72.8700 N.3   199  VAL199     -0.1245
     84  CA        23.9490   17.5620   73.0610 C.3   199  VAL199      0.1561
     85  C         23.2310   18.9020   72.8470 C.2   199  VAL199      0.2260
     86  O         23.6130   19.9320   73.4130 O.2   199  VAL199     -0.2867
     87  CB        25.1400   17.4630   72.0860 C.3   199  VAL199      0.0252
     88  CG1       25.7020   16.0390   72.0890 C.3   199  VAL199      0.0019
     89  CG2       24.7080   17.8710   70.6980 C.3   199  VAL199      0.0019
@<TRIPOS>BOND
     1    36    35    2
     2    35    34    1
     3    25    24    2
     4    34    37    1
     5    34    33    1
     6    24    33   am
     7    24    23    1
     8    37    38    1
     9    30    28   ar
    10    30    32   ar
    11    38    39    1
    12    38    40    1
    13    23    22    1
    14    23    26    1
    15    28    27   ar
    16    32    31   ar
    17    27    26    1
    18    27    29   ar
    19    31    29   ar
    20    46    45    1
    21    41    42    1
    22    45    42    1
    23    45    47    1
    24    18    17    2
    25    42    43    1
    26    17    16    1
    27    43    44    2
    28    16    15    1
    29    16    19    1
    30    21    19    1
    31    54    53    1
    32    54    48    1
    33    19    20    1
    34    53    52    1
    35    52    49    1
    36    48    49    1
    37    62    60    1
    38     4     3    2
    39    49    50    1
    40    60    59    1
    41    55    50   am
    42    55    56    1
    43     3     2    1
    44    50    51    2
    45    59    56    1
    46    59    61    1
    47    12    14   ar
    48    12    10   ar
    49    56    57    1
    50    14    13   ar
    51     2     1    1
    52     2     5    1
    53    10     9   ar
    54    10     8   ar
    55     9     7   ar
    56    13    11   ar
    57     8    11   ar
    58     8     6   ar
    59     7     6   ar
    60     6     5    1
    61    57    58    2
    62    69    67    1
    63    67    68    1
    64    67    64    1
    65    63    64    1
    66    68    70    1
    67    64    65    1
    68    77    75    1
    69    76    75    1
    70    71    65   am
    71    71    72    1
    72    65    66    2
    73    75    72    1
    74    72    73    1
    75    73    74    2
    76    89    87    1
    77    78    79    1
    78    82    79    1
    79    79    80    1
    80    87    88    1
    81    87    84    1
    82    85    84    1
    83    85    86    2
    84    83    84    1
    85    80    81    2
