@<TRIPOS>MOLECULE
tmp/1vgoB02.pdb
 130 128 0 0 0
SMALL
GASTEIGER

@<TRIPOS>ATOM
      1  N         22.1890   54.4100  -18.3980 N.3    71  LEU71      -0.1231
      2  CA        23.4590   54.9740  -17.9710 C.3    71  LEU71       0.1693
      3  C         24.0260   55.9210  -19.0200 C.2    71  LEU71       0.2592
      4  O         23.4210   56.1350  -20.0730 O.2    71  LEU71      -0.2718
      5  CB        24.4570   53.8500  -17.7070 C.3    71  LEU71       0.0284
      6  CG        23.9580   52.7450  -16.7760 C.3    71  LEU71       0.0019
      7  CD1       24.9690   51.6160  -16.7350 C.3    71  LEU71       0.0001
      8  CD2       23.7150   53.3100  -15.3900 C.3    71  LEU71       0.0001
      9  N         25.1920   56.4880  -18.7210 N.am   72  ALA72      -0.1966
     10  CA        25.8580   57.4100  -19.6330 C.3    72  ALA72       0.1728
     11  C         26.6210   56.6050  -20.6800 C.2    72  ALA72       0.2616
     12  O         27.0610   57.1450  -21.6970 O.2    72  ALA72      -0.2715
     13  CB        26.8120   58.3080  -18.8600 C.3    72  ALA72       0.0334
     14  N         26.7720   55.3090  -20.4150 N.am   73  SER73      -0.1950
     15  CA        27.4690   54.4000  -21.3160 C.3    73  SER73       0.1924
     16  C         26.5000   53.8730  -22.3710 C.2    73  SER73       0.2314
     17  O         26.8400   52.9900  -23.1590 O.2    73  SER73      -0.2863
     18  CB        28.0610   53.2310  -20.5250 C.3    73  SER73       0.2116
     19  OG        28.7790   52.3380  -21.3610 O.3    73  SER73      -0.2180
     20  N         24.1120   51.9520  -22.0650 N.3    75  THR75      -0.1218
     21  CA        23.4780   50.7300  -21.5780 C.3    75  THR75       0.1862
     22  C         22.4370   51.0170  -20.4860 C.2    75  THR75       0.2287
     23  O         22.7830   51.4870  -19.4020 O.2    75  THR75      -0.2866
     24  CB        24.5470   49.7640  -21.0350 C.3    75  THR75       0.1770
     25  OG1       25.3520   50.4440  -20.0630 O.3    75  THR75      -0.2211
     26  CG2       25.4480   49.2750  -22.1680 C.3    75  THR75       0.0375
     27  N         22.7520   57.8180  -12.8020 N.3   130  LYS130     -0.1245
     28  CA        23.2770   57.6210  -14.1550 C.3   130  LYS130      0.1561
     29  C         24.7960   57.5160  -14.3190 C.2   130  LYS130      0.2260
     30  O         25.2830   56.6660  -15.0640 O.2   130  LYS130     -0.2867
     31  CB        22.7690   58.7510  -15.0550 C.3   130  LYS130      0.0271
     32  CG        21.2600   58.9240  -15.0580 C.3   130  LYS130      0.0035
     33  CD        20.6270   58.4000  -16.3440 C.3   130  LYS130      0.0206
     34  CE        20.9060   59.3070  -17.5490 C.3   130  LYS130      0.1093
     35  NZ        22.3420   59.3460  -17.9940 N.3   130  LYS130     -0.1314
     36  N         28.8200   56.9270  -13.0200 N.3   132  PRO132     -0.2116
     37  CA        29.6050   56.1330  -12.0700 C.3   132  PRO132      0.1372
     38  C         30.1700   56.9430  -10.9040 C.2   132  PRO132      0.2244
     39  O         30.5400   56.3840   -9.8690 O.2   132  PRO132     -0.2868
     40  CB        30.6940   55.5080  -12.9530 C.3   132  PRO132      0.0268
     41  CG        30.8480   56.4870  -14.0610 C.3   132  PRO132      0.0207
     42  CD        29.4250   56.8810  -14.3630 C.3   132  PRO132      0.0892
     43  N         27.0890   57.1670   -8.4690 N.3   135  ARG135     -0.1231
     44  CA        26.8710   55.8690   -7.8570 C.3   135  ARG135      0.1694
     45  C         27.8730   55.5320   -6.7630 C.2   135  ARG135      0.2592
     46  O         27.5610   54.7630   -5.8500 O.2   135  ARG135     -0.2718
     47  CB        26.8690   54.7640   -8.9200 C.3   135  ARG135      0.0321
     48  CG        25.5520   54.6540   -9.6770 C.3   135  ARG135      0.0489
     49  CD        25.5740   53.5050  -10.6650 C.3   135  ARG135      0.2205
     50  NE        25.4960   53.9950  -12.0350 N.pl3 135  ARG135     -0.0865
     51  CZ        26.4470   53.8270  -12.9480 C.cat 135  ARG135      0.5346
     52  NH1       27.5630   53.1710  -12.6480 N.pl3 135  ARG135      0.1354
     53  NH2       26.2820   54.3260  -14.1620 N.pl3 135  ARG135      0.1354
     54  N         29.0730   56.0940   -6.8390 N.am  136  TYR136     -0.1976
     55  CA        30.0590   55.8070   -5.8050 C.3   136  TYR136      0.1639
     56  C         29.8110   56.6670   -4.5760 C.2   136  TYR136      0.2290
     57  O         30.0260   56.2280   -3.4470 O.2   136  TYR136     -0.2864
     58  CB        31.4910   56.0240   -6.3120 C.3   136  TYR136      0.0560
     59  CG        32.4950   56.0760   -5.1780 C.ar  136  TYR136     -0.0198
     60  CD1       32.7440   57.2750   -4.4980 C.ar  136  TYR136     -0.0009
     61  CD2       33.1100   54.9090   -4.7030 C.ar  136  TYR136     -0.0009
     62  CE1       33.5630   57.3120   -3.3720 C.ar  136  TYR136      0.0417
     63  CE2       33.9390   54.9370   -3.5720 C.ar  136  TYR136      0.0417
     64  CZ        34.1550   56.1450   -2.9140 C.ar  136  TYR136      0.1957
     65  OH        34.9510   56.1950   -1.7910 O.3   136  TYR136     -0.2866
     66  N         27.0410   55.1980   -2.8260 N.3   139  TRP139     -0.1241
     67  CA        27.5170   53.9180   -2.3170 C.3   139  TRP139      0.1605
     68  C         28.3720   54.1250   -1.0630 C.2   139  TRP139      0.2264
     69  O         28.2740   53.3670   -0.0980 O.2   139  TRP139     -0.2867
     70  CB        28.3470   53.2080   -3.3790 C.3   139  TRP139      0.0550
     71  CG        28.9680   51.9390   -2.8970 C.ar  139  TRP139      0.0003
     72  CD1       28.4320   50.6910   -2.9600 C.ar  139  TRP139      0.0946
     73  CD2       30.2560   51.7940   -2.2770 C.ar  139  TRP139      0.0152
     74  NE1       29.3030   49.7710   -2.4210 N.ar  139  TRP139     -0.2442
     75  CE2       30.4310   50.4230   -1.9940 C.ar  139  TRP139      0.0810
     76  CE3       31.2790   52.6930   -1.9360 C.ar  139  TRP139      0.0012
     77  CZ2       31.5900   49.9240   -1.3850 C.ar  139  TRP139      0.0191
     78  CZ3       32.4300   52.1990   -1.3290 C.ar  139  TRP139      0.0001
     79  CH2       32.5750   50.8260   -1.0610 C.ar  139  TRP139      0.0015
     80  N         27.3560   44.6990   -4.9620 N.3   190  TRP190     -0.1227
     81  CA        26.7290   45.8380   -5.5990 C.3   190  TRP190      0.1737
     82  C         27.7290   46.6110   -6.4590 C.2   190  TRP190      0.2595
     83  O         27.4520   46.9330   -7.6150 O.2   190  TRP190     -0.2718
     84  CB        26.1520   46.7660   -4.5320 C.3   190  TRP190      0.0564
     85  CG        25.2240   47.8330   -5.0530 C.ar  190  TRP190      0.0003
     86  CD1       23.8610   47.7850   -5.0840 C.ar  190  TRP190      0.0946
     87  CD2       25.5900   49.1300   -5.5460 C.ar  190  TRP190      0.0152
     88  NE1       23.3530   48.9750   -5.5520 N.ar  190  TRP190     -0.2442
     89  CE2       24.3940   49.8180   -5.8440 C.ar  190  TRP190      0.0810
     90  CE3       26.8130   49.7800   -5.7620 C.ar  190  TRP190      0.0012
     91  CZ2       24.3840   51.1250   -6.3440 C.ar  190  TRP190      0.0191
     92  CZ3       26.8010   51.0800   -6.2590 C.ar  190  TRP190      0.0001
     93  CH2       25.5960   51.7380   -6.5430 C.ar  190  TRP190      0.0015
     94  N         28.8950   46.8970   -5.8890 N.am  191  ILE191     -0.1980
     95  CA        29.9230   47.6710   -6.5740 C.3   191  ILE191      0.1595
     96  C         30.6430   46.9180   -7.6950 C.2   191  ILE191      0.2287
     97  O         31.1250   47.5300   -8.6480 O.2   191  ILE191     -0.2864
     98  CB        30.9520   48.2210   -5.5490 C.3   191  ILE191      0.0276
     99  CG1       31.6520   49.4480   -6.1300 C.3   191  ILE191      0.0022
    100  CG2       31.9550   47.1320   -5.1590 C.3   191  ILE191      0.0022
    101  CD1       32.5160   50.1880   -5.1340 C.3   191  ILE191      0.0001
    102  N         26.4010   44.8870  -11.6540 N.3   194  THR194     -0.1203
    103  CA        25.9370   45.7570  -12.7270 C.3   194  THR194      0.1994
    104  C         25.8940   47.2540  -12.3750 C.2   194  THR194      0.2618
    105  O         25.7240   48.1000  -13.2550 O.2   194  THR194     -0.2717
    106  CB        24.5260   45.3280  -13.1920 C.3   194  THR194      0.1784
    107  OG1       23.5700   45.6310  -12.1660 O.3   194  THR194     -0.2211
    108  CG2       24.4910   43.8360  -13.4740 C.3   194  THR194      0.0376
    109  N         26.0310   47.5890  -11.0980 N.am  195  GLU195     -0.1965
    110  CA        25.9930   48.9940  -10.7020 C.3   195  GLU195      0.1733
    111  C         27.3870   49.6140  -10.6840 C.2   195  GLU195      0.2617
    112  O         27.5320   50.8360  -10.6370 O.2   195  GLU195     -0.2715
    113  CB        25.3250   49.1320   -9.3270 C.3   195  GLU195      0.0429
    114  CG        23.8350   48.8210   -9.3380 C.3   195  GLU195      0.1163
    115  CD        23.0110   49.9290   -9.9750 C.2   195  GLU195      0.3649
    116  OE1       23.4930   50.5800  -10.9250 O.co2 195  GLU195     -0.2457
    117  OE2       21.8680   50.1470   -9.5330 O.co2 195  GLU195     -0.2457
    118  N         28.4040   48.7570  -10.7360 N.am  196  GLY196     -0.1940
    119  CA        29.7770   49.2210  -10.7230 C.3   196  GLY196      0.2014
    120  C         30.6720   48.6540  -11.8130 C.2   196  GLY196      0.2639
    121  O         30.5200   48.9840  -12.9860 O.2   196  GLY196     -0.2714
    122  N         31.6000   47.7880  -11.4100 N.am  197  ALA197     -0.1963
    123  CA        32.5800   47.1650  -12.3030 C.3   197  ALA197      0.1728
    124  C         32.0140   46.3260  -13.4430 C.2   197  ALA197      0.2616
    125  O         32.6030   46.2650  -14.5250 O.2   197  ALA197     -0.2715
    126  CB        33.5500   46.3140  -11.4780 C.3   197  ALA197      0.0334
    127  N         30.8920   45.6580  -13.1970 N.am  198  GLY198     -0.1955
    128  CA        30.2930   44.8380  -14.2320 C.3   198  GLY198      0.1869
    129  C         30.9430   43.4770  -14.4160 C.2   198  GLY198      0.2309
    130  O         30.7360   42.8350  -15.4420 O.2   198  GLY198     -0.2863
@<TRIPOS>BOND
     1    17    16    2
     2    16    15    1
     3    26    24    1
     4    20    21    1
     5    12    11    2
     6    21    24    1
     7    21    22    1
     8    19    18    1
     9    15    18    1
    10    15    14    1
    11    24    25    1
    12    11    14   am
    13    11    10    1
    14    22    23    2
    15     4     3    2
    16    10    13    1
    17    10     9    1
    18     3     9   am
    19     3     2    1
    20     1     2    1
    21    35    34    1
    22     2     5    1
    23     5     6    1
    24    34    33    1
    25     6     7    1
    26     6     8    1
    27    33    32    1
    28   130   129    2
    29    30    29    2
    30    32    31    1
    31    31    28    1
    32   125   124    2
    33   129   128    1
    34    42    41    1
    35    42    36    1
    36    29    28    1
    37   128   127    1
    38    53    51    1
    39    28    27    1
    40    41    40    1
    41   108   106    1
    42   124   127   am
    43   124   123    1
    44   105   104    2
    45   106   103    1
    46   106   107    1
    47    36    37    1
    48   121   120    2
    49    40    37    1
    50    51    52    1
    51    51    50    2
    52   103   104    1
    53   103   102    1
    54   104   109   am
    55   123   126    1
    56   123   122    1
    57    37    38    1
    58    50    49    1
    59   120   122   am
    60   120   119    1
    61   109   110    1
    62   116   115   ar
    63    38    39    2
    64   118   119    1
    65   118   111   am
    66   110   111    1
    67   110   113    1
    68   111   112    2
    69    49    48    1
    70   115   117   ar
    71   115   114    1
    72    48    47    1
    73   114   113    1
    74    47    44    1
    75    97    96    2
    76    43    44    1
    77    44    45    1
    78    96    95    1
    79    83    82    2
    80    54    45   am
    81    54    55    1
    82    45    46    2
    83    95    94    1
    84    95    98    1
    85    93    91   ar
    86    93    92   ar
    87    82    94   am
    88    82    81    1
    89    91    89   ar
    90    58    55    1
    91    58    59    1
    92    92    90   ar
    93    99    98    1
    94    99   101    1
    95    89    88   ar
    96    89    87   ar
    97    55    56    1
    98    90    87   ar
    99    81    80    1
   100    81    84    1
   101    88    86   ar
   102    98   100    1
   103    87    85   ar
   104    59    61   ar
   105    59    60   ar
   106    86    85   ar
   107    85    84    1
   108    61    63   ar
   109    56    57    2
   110    60    62   ar
   111    63    64   ar
   112    70    71    1
   113    70    67    1
   114    62    64   ar
   115    72    71   ar
   116    72    74   ar
   117    64    65    1
   118    71    73   ar
   119    66    67    1
   120    74    75   ar
   121    67    68    1
   122    73    75   ar
   123    73    76   ar
   124    75    77   ar
   125    76    78   ar
   126    77    79   ar
   127    78    79   ar
   128    68    69    2
