@<TRIPOS>MOLECULE
tmp/1vgoA04.pdb
 71 64 0 0 0
SMALL
GASTEIGER

@<TRIPOS>ATOM
      1  N         24.6240   19.3160   50.9600 N.3   181  VAL181     -0.1231
      2  CA        25.0480   20.0150   52.1560 C.3   181  VAL181      0.1692
      3  C         23.8970   20.1820   53.1460 C.2   181  VAL181      0.2591
      4  O         24.0570   19.9660   54.3500 O.2   181  VAL181     -0.2718
      5  CB        25.6280   21.4000   51.7990 C.3   181  VAL181      0.0266
      6  CG1       24.7150   22.0990   50.8220 C.3   181  VAL181      0.0020
      7  CG2       25.7810   22.2490   53.0600 C.3   181  VAL181      0.0020
      8  N         22.7330   20.5500   52.6300 N.am  182  LEU182     -0.1980
      9  CA        21.5660   20.7740   53.4610 C.3   182  LEU182      0.1596
     10  C         20.9330   19.5050   54.0290 C.2   182  LEU182      0.2287
     11  O         20.6620   19.4180   55.2320 O.2   182  LEU182     -0.2864
     12  CB        20.5290   21.5500   52.6490 C.3   182  LEU182      0.0297
     13  CG        20.1320   22.9740   53.0490 C.3   182  LEU182      0.0022
     14  CD1       21.3070   23.7370   53.6350 C.3   182  LEU182      0.0001
     15  CD2       19.5790   23.6740   51.8130 C.3   182  LEU182      0.0001
     16  N         22.6040   17.5160   56.7920 N.3   185  ALA185     -0.1245
     17  CA        22.4480   18.0770   58.1260 C.3   185  ALA185      0.1562
     18  C         21.3330   17.4350   58.9580 C.2   185  ALA185      0.2260
     19  O         21.4410   17.3830   60.1810 O.2   185  ALA185     -0.2867
     20  CB        22.2190   19.5830   58.0270 C.3   185  ALA185      0.0290
     21  N         21.7650   16.3940   62.8160 N.3   189  LEU189     -0.1245
     22  CA        21.0300   17.1460   63.8250 C.3   189  LEU189      0.1561
     23  C         20.1360   16.2360   64.6860 C.2   189  LEU189      0.2260
     24  O         19.9120   16.4950   65.8640 O.2   189  LEU189     -0.2867
     25  CB        20.1830   18.2200   63.1370 C.3   189  LEU189      0.0270
     26  CG        19.1120   18.9680   63.9440 C.3   189  LEU189      0.0019
     27  CD1       19.7100   19.5760   65.2170 C.3   189  LEU189      0.0001
     28  CD2       18.4910   20.0540   63.0570 C.3   189  LEU189      0.0001
     29  N         22.1780   18.8740   72.0360 N.3   200  VAL200     -0.1245
     30  CA        21.4000   20.0740   71.7370 C.3   200  VAL200      0.1561
     31  C         19.9750   19.9540   72.2560 C.2   200  VAL200      0.2260
     32  O         19.3090   18.9470   72.0290 O.2   200  VAL200     -0.2867
     33  CB        21.3580   20.3290   70.2250 C.3   200  VAL200      0.0252
     34  CG1       20.4250   21.4730   69.9170 C.3   200  VAL200      0.0019
     35  CG2       22.7590   20.6340   69.7210 C.3   200  VAL200      0.0019
     36  N         16.9500   24.6970   70.4990 N.3   204  ILE204     -0.1245
     37  CA        17.9090   24.9550   69.4340 C.3   204  ILE204      0.1561
     38  C         17.6440   24.0040   68.2730 C.2   204  ILE204      0.2260
     39  O         17.6730   24.4070   67.1120 O.2   204  ILE204     -0.2867
     40  CB        19.3660   24.7720   69.9320 C.3   204  ILE204      0.0252
     41  CG1       19.7110   25.8600   70.9500 C.3   204  ILE204      0.0019
     42  CG2       20.3380   24.8540   68.7640 C.3   204  ILE204      0.0019
     43  CD1       19.7130   27.2640   70.3700 C.3   204  ILE204      0.0001
     44  N         15.0440   25.3320   66.2570 N.3   207  LEU207     -0.1231
     45  CA        15.5570   26.5210   65.5850 C.3   207  LEU207      0.1693
     46  C         16.3860   26.0590   64.3810 C.2   207  LEU207      0.2591
     47  O         16.2530   26.5910   63.2860 O.2   207  LEU207     -0.2718
     48  CB        16.4280   27.3360   66.5470 C.3   207  LEU207      0.0284
     49  CG        17.3440   28.4420   66.0010 C.3   207  LEU207      0.0019
     50  CD1       16.5570   29.4590   65.1730 C.3   207  LEU207      0.0001
     51  CD2       18.0250   29.1320   67.1680 C.3   207  LEU207      0.0001
     52  N         17.2230   25.0480   64.5890 N.am  208  ALA208     -0.1980
     53  CA        18.0650   24.5180   63.5250 C.3   208  ALA208      0.1597
     54  C         17.2630   23.8530   62.3890 C.2   208  ALA208      0.2287
     55  O         17.5820   24.0500   61.2160 O.2   208  ALA208     -0.2864
     56  CB        19.0700   23.5430   64.1100 C.3   208  ALA208      0.0319
     57  N         15.5940   26.5300   60.2540 N.3   211  VAL211     -0.1231
     58  CA        16.5420   27.1480   59.3480 C.3   211  VAL211      0.1692
     59  C         16.7730   26.1890   58.1880 C.2   211  VAL211      0.2591
     60  O         16.6660   26.5800   57.0280 O.2   211  VAL211     -0.2718
     61  CB        17.8760   27.4610   60.0660 C.3   211  VAL211      0.0266
     62  CG1       18.9430   27.8760   59.0550 C.3   211  VAL211      0.0020
     63  CG2       17.6550   28.5740   61.0910 C.3   211  VAL211      0.0020
     64  N         17.0680   24.9300   58.4990 N.am  212  LEU212     -0.1980
     65  CA        17.2860   23.9280   57.4620 C.3   212  LEU212      0.1596
     66  C         16.0770   23.7780   56.5380 C.2   212  LEU212      0.2287
     67  O         16.2190   23.7850   55.3150 O.2   212  LEU212     -0.2864
     68  CB        17.5950   22.5650   58.0880 C.3   212  LEU212      0.0297
     69  CG        18.9040   22.4110   58.8620 C.3   212  LEU212      0.0022
     70  CD1       18.9440   21.0460   59.5160 C.3   212  LEU212      0.0001
     71  CD2       20.0790   22.5940   57.9230 C.3   212  LEU212      0.0001
@<TRIPOS>BOND
     1     6     5    1
     2     1     2    1
     3     5     2    1
     4     5     7    1
     5    15    13    1
     6     2     3    1
     7     8     3   am
     8     8     9    1
     9    12    13    1
    10    12     9    1
    11    13    14    1
    12     3     4    2
    13     9    10    1
    14    10    11    2
    15    67    66    2
    16    66    65    1
    17    16    17    1
    18    60    59    2
    19    65    68    1
    20    65    64    1
    21    71    69    1
    22    20    17    1
    23    68    69    1
    24    17    18    1
    25    59    64   am
    26    59    58    1
    27    69    70    1
    28    18    19    2
    29    62    61    1
    30    58    61    1
    31    58    57    1
    32    61    63    1
    33    55    54    2
    34    54    53    1
    35    21    22    1
    36    28    26    1
    37    25    22    1
    38    25    26    1
    39    47    46    2
    40    53    56    1
    41    53    52    1
    42    22    23    1
    43    26    27    1
    44    46    52   am
    45    46    45    1
    46    23    24    2
    47    50    49    1
    48    45    44    1
    49    45    48    1
    50    49    48    1
    51    49    51    1
    52    39    38    2
    53    38    37    1
    54    42    40    1
    55    37    40    1
    56    37    36    1
    57    35    33    1
    58    34    33    1
    59    40    41    1
    60    33    30    1
    61    43    41    1
    62    30    29    1
    63    30    31    1
    64    32    31    2
