@<TRIPOS>MOLECULE
tmp/1vgoB00.pdb
 83 78 0 0 0
SMALL
GASTEIGER

@<TRIPOS>ATOM
      1  N         16.6080   54.1330   23.0070 N.3   107  VAL107     -0.1231
      2  CA        17.3000   55.1960   22.2850 C.3   107  VAL107      0.1692
      3  C         18.2870   54.5800   21.2910 C.2   107  VAL107      0.2592
      4  O         18.2830   54.9180   20.1080 O.2   107  VAL107     -0.2718
      5  CB        18.0630   56.1380   23.2560 C.3   107  VAL107      0.0266
      6  CG1       18.9160   57.1240   22.4700 C.3   107  VAL107      0.0020
      7  CG2       17.0740   56.8970   24.1240 C.3   107  VAL107      0.0020
      8  N         19.1230   53.6690   21.7740 N.am  108  THR108     -0.1953
      9  CA        20.0960   53.0020   20.9170 C.3   108  THR108      0.1897
     10  C         19.4140   52.2520   19.7600 C.2   108  THR108      0.2313
     11  O         19.9230   52.2490   18.6360 O.2   108  THR108     -0.2863
     12  CB        20.9570   52.0290   21.7350 C.3   108  THR108      0.1794
     13  OG1       21.7800   51.2520   20.8570 O.3   108  THR108     -0.2208
     14  CG2       20.0810   51.1020   22.5280 C.3   108  THR108      0.0378
     15  N         18.2680   54.6630   16.9340 N.3   111  THR111     -0.1218
     16  CA        19.4010   55.1350   16.1550 C.3   111  THR111      0.1862
     17  C         19.8290   54.0260   15.2000 C.2   111  THR111      0.2287
     18  O         20.1500   54.2820   14.0350 O.2   111  THR111     -0.2866
     19  CB        20.5890   55.4810   17.0730 C.3   111  THR111      0.1770
     20  OG1       20.1760   56.4520   18.0430 O.3   111  THR111     -0.2211
     21  CG2       21.7610   56.0340   16.2550 C.3   111  THR111      0.0375
     22  N         19.8970   54.5750   11.1210 N.3   115  VAL115     -0.1245
     23  CA        21.0640   54.5290   10.2530 C.3   115  VAL115      0.1561
     24  C         20.8720   53.4250    9.2140 C.2   115  VAL115      0.2260
     25  O         21.2940   53.5560    8.0620 O.2   115  VAL115     -0.2867
     26  CB        22.3630   54.2810   11.0780 C.3   115  VAL115      0.0252
     27  CG1       23.5560   54.1450   10.1470 C.3   115  VAL115      0.0019
     28  CG2       22.5990   55.4460   12.0460 C.3   115  VAL115      0.0019
     29  N         18.6140   54.5690    6.5030 N.3   118  LEU118     -0.1245
     30  CA        19.3880   55.5320    5.7290 C.3   118  LEU118      0.1561
     31  C         20.2920   54.7740    4.7630 C.2   118  LEU118      0.2260
     32  O         20.5260   55.2240    3.6430 O.2   118  LEU118     -0.2867
     33  CB        20.2210   56.4040    6.6740 C.3   118  LEU118      0.0270
     34  CG        20.9600   57.6650    6.1880 C.3   118  LEU118      0.0019
     35  CD1       22.1780   57.2690    5.3920 C.3   118  LEU118      0.0001
     36  CD2       20.0320   58.5450    5.3530 C.3   118  LEU118      0.0001
     37  N         28.2340   56.7690    0.8740 N.3   141  PHE141     -0.1241
     38  CA        27.3090   57.3160    1.8580 C.3   141  PHE141      0.1605
     39  C         26.6010   56.1600    2.5570 C.2   141  PHE141      0.2264
     40  O         26.3720   56.1890    3.7600 O.2   141  PHE141     -0.2867
     41  CB        26.2730   58.1920    1.1560 C.3   141  PHE141      0.0534
     42  CG        25.9020   59.4210    1.9180 C.ar  141  PHE141     -0.0203
     43  CD1       26.8020   60.4820    2.0270 C.ar  141  PHE141     -0.0042
     44  CD2       24.6500   59.5290    2.5250 C.ar  141  PHE141     -0.0042
     45  CE1       26.4600   61.6410    2.7360 C.ar  141  PHE141     -0.0003
     46  CE2       24.2880   60.6800    3.2380 C.ar  141  PHE141     -0.0003
     47  CZ        25.1920   61.7400    3.3450 C.ar  141  PHE141     -0.0000
     48  N         28.9480   53.7970    4.6510 N.3   144  ILE144     -0.1231
     49  CA        29.3250   54.4640    5.8930 C.3   144  ILE144      0.1692
     50  C         28.2570   54.1690    6.9390 C.2   144  ILE144      0.2591
     51  O         28.5680   53.7250    8.0470 O.2   144  ILE144     -0.2718
     52  CB        29.4940   55.9840    5.6760 C.3   144  ILE144      0.0266
     53  CG1       30.7600   56.2260    4.8500 C.3   144  ILE144      0.0019
     54  CG2       29.6070   56.7070    7.0080 C.3   144  ILE144      0.0020
     55  CD1       30.9220   57.6520    4.3630 C.3   144  ILE144      0.0001
     56  N         27.0040   54.4140    6.5740 N.am  145  ALA145     -0.1980
     57  CA        25.8770   54.1170    7.4490 C.3   145  ALA145      0.1597
     58  C         25.9920   52.6430    7.8880 C.2   145  ALA145      0.2287
     59  O         25.7600   52.3110    9.0490 O.2   145  ALA145     -0.2864
     60  CB        24.5610   54.3440    6.7010 C.3   145  ALA145      0.0319
     61  N         28.3780   52.1500   10.5270 N.3   148  PHE148     -0.1241
     62  CA        27.8000   52.6420   11.7720 C.3   148  PHE148      0.1605
     63  C         26.9140   51.5580   12.3710 C.2   148  PHE148      0.2264
     64  O         26.8740   51.3720   13.5950 O.2   148  PHE148     -0.2867
     65  CB        26.9720   53.9170   11.5490 C.3   148  PHE148      0.0534
     66  CG        27.7550   55.1880   11.7590 C.ar  148  PHE148     -0.0203
     67  CD1       28.3280   55.8640   10.6780 C.ar  148  PHE148     -0.0042
     68  CD2       27.9590   55.6880   13.0490 C.ar  148  PHE148     -0.0042
     69  CE1       29.0970   57.0190   10.8760 C.ar  148  PHE148     -0.0003
     70  CE2       28.7280   56.8460   13.2650 C.ar  148  PHE148     -0.0003
     71  CZ        29.3000   57.5130   12.1750 C.ar  148  PHE148     -0.0000
     72  N         27.4230   50.0900   16.2540 N.3   152  TYR152     -0.1241
     73  CA        26.5210   49.9660   17.4030 C.3   152  TYR152      0.1605
     74  C         26.3370   48.4860   17.7600 C.2   152  TYR152      0.2264
     75  O         26.0940   48.1280   18.9120 O.2   152  TYR152     -0.2867
     76  CB        25.1500   50.5700   17.0910 C.3   152  TYR152      0.0534
     77  CG        25.1750   52.0200   16.6740 C.ar  152  TYR152     -0.0201
     78  CD1       25.6350   53.0150   17.5440 C.ar  152  TYR152     -0.0009
     79  CD2       24.7310   52.4050   15.4080 C.ar  152  TYR152     -0.0009
     80  CE1       25.6500   54.3590   17.1580 C.ar  152  TYR152      0.0417
     81  CE2       24.7400   53.7350   15.0130 C.ar  152  TYR152      0.0417
     82  CZ        25.1990   54.7050   15.8910 C.ar  152  TYR152      0.1957
     83  OH        25.2020   56.0200   15.4970 O.3   152  TYR152     -0.2866
@<TRIPOS>BOND
     1    37    38    1
     2    41    38    1
     3    41    42    1
     4    38    39    1
     5    42    43   ar
     6    42    44   ar
     7    43    45   ar
     8    44    46   ar
     9    39    40    2
    10    45    47   ar
    11    46    47   ar
    12    32    31    2
    13    55    53    1
    14    48    49    1
    15    31    30    1
    16    53    52    1
    17    36    34    1
    18    35    34    1
    19    52    49    1
    20    52    54    1
    21    30    29    1
    22    30    33    1
    23    49    50    1
    24    34    33    1
    25    56    50   am
    26    56    57    1
    27    60    57    1
    28    50    51    2
    29    57    58    1
    30    58    59    2
    31    25    24    2
    32    24    23    1
    33    27    26    1
    34    23    26    1
    35    23    22    1
    36    61    62    1
    37    67    69   ar
    38    67    66   ar
    39    69    71   ar
    40    26    28    1
    41    65    66    1
    42    65    62    1
    43    66    68   ar
    44    62    63    1
    45    71    70   ar
    46    63    64    2
    47    68    70   ar
    48    18    17    2
    49    81    79   ar
    50    81    82   ar
    51    17    16    1
    52    79    77   ar
    53    83    82    1
    54    82    80   ar
    55    16    15    1
    56    16    19    1
    57    72    73    1
    58    21    19    1
    59    77    76    1
    60    77    78   ar
    61    19    20    1
    62    76    73    1
    63    80    78   ar
    64    73    74    1
    65    74    75    2
    66    11    10    2
    67    10     9    1
    68     4     3    2
    69    13    12    1
    70     9    12    1
    71     9     8    1
    72     3     8   am
    73     3     2    1
    74    12    14    1
    75     2     1    1
    76     2     5    1
    77     6     5    1
    78     5     7    1
