@<TRIPOS>MOLECULE
tmp/1vh3A00.pdb
 190 183 0 0 0
SMALL
GASTEIGER

@<TRIPOS>ATOM
      1  N         40.9660   36.9150   23.0130 N.3     7  PRO7       -0.2102
      2  CA        41.7940   37.9660   22.4310 C.3     7  PRO7        0.1504
      3  C         41.0490   38.5480   21.2290 C.2     7  PRO7        0.2576
      4  O         40.6840   37.7780   20.3350 O.2     7  PRO7       -0.2718
      5  CB        43.0600   37.2680   21.9890 C.3     7  PRO7        0.0282
      6  CG        42.9500   35.8550   22.3910 C.3     7  PRO7        0.0208
      7  CD        41.5100   35.5730   22.7030 C.3     7  PRO7        0.0893
      8  N         40.8360   39.8560   21.2130 N.am    8  ALA8       -0.1966
      9  CA        40.0180   40.4600   20.1650 C.3     8  ALA8        0.1728
     10  C         40.6030   41.7130   19.5530 C.2     8  ALA8        0.2616
     11  O         40.1620   42.8360   19.8290 O.2     8  ALA8       -0.2715
     12  CB        38.6380   40.7620   20.7670 C.3     8  ALA8        0.0334
     13  N         41.5510   41.5340   18.6480 N.am    9  ARG9       -0.1977
     14  CA        42.2510   42.6330   17.9810 C.3     9  ARG9        0.1597
     15  C         41.4680   43.1650   16.7950 C.2     9  ARG9        0.2287
     16  O         40.8380   44.2320   16.8950 O.2     9  ARG9       -0.2864
     17  CB        43.6370   42.1470   17.5840 C.3     9  ARG9        0.0334
     18  CG        44.4660   43.0340   16.6890 C.3     9  ARG9        0.0492
     19  CD        45.8110   42.3880   16.3840 C.3     9  ARG9        0.2205
     20  NE        46.0770   42.2490   14.9640 N.pl3   9  ARG9       -0.0865
     21  CZ        45.4040   41.4950   14.1050 C.cat   9  ARG9        0.5346
     22  NH1       45.7710   41.4540   12.8230 N.pl3   9  ARG9        0.1354
     23  NH2       44.3600   40.7670   14.4860 N.pl3   9  ARG9        0.1354
     24  N         51.4170   43.7000   20.7250 N.3    52  HIS52      -0.1226
     25  CA        51.3490   42.2910   20.9220 C.3    52  HIS52       0.1752
     26  C         51.1910   41.5980   19.5570 C.2    52  HIS52       0.2596
     27  O         50.2480   41.9260   18.8310 O.2    52  HIS52      -0.2718
     28  CB        50.1690   41.8160   21.7780 C.3    52  HIS52       0.0759
     29  CG        50.2740   42.2550   23.1980 C.ar   52  HIS52       0.0818
     30  ND1       51.3720   41.9490   23.9760 N.ar   52  HIS52      -0.2268
     31  CD2       49.4760   43.0450   23.9480 C.ar   52  HIS52       0.1154
     32  CE1       51.2200   42.5160   25.1630 C.ar   52  HIS52       0.1986
     33  NE2       50.0770   43.1700   25.1800 N.ar   52  HIS52      -0.2212
     34  N         52.0310   40.6160   19.2660 N.am   53  ASN53      -0.1960
     35  CA        51.8860   39.9530   17.9580 C.3    53  ASN53       0.1819
     36  C         51.1070   38.6640   18.0560 C.2    53  ASN53       0.2622
     37  O         51.0440   37.9020   17.0860 O.2    53  ASN53      -0.2715
     38  CB        53.2590   39.7780   17.3230 C.3    53  ASN53       0.1195
     39  CG        54.0690   41.0690   17.3850 C.2    53  ASN53       0.2630
     40  OD1       53.6050   42.1370   16.9630 O.2    53  ASN53      -0.2716
     41  ND2       55.2740   40.9870   17.9370 N.am   53  ASN53      -0.0877
     42  N         50.4250   38.4020   19.1770 N.am   54  SER54      -0.1936
     43  CA        49.6570   37.1780   19.3100 C.3    54  SER54       0.2055
     44  C         48.6800   37.2460   20.4780 C.2    54  SER54       0.2643
     45  O         48.9120   37.9500   21.4670 O.2    54  SER54      -0.2714
     46  CB        50.5630   35.9580   19.4600 C.3    54  SER54       0.2130
     47  OG        50.8320   35.6350   20.8080 O.3    54  SER54      -0.2179
     48  N         47.6340   36.4120   20.3820 N.am   55  GLY55      -0.1954
     49  CA        46.6580   36.3130   21.4550 C.3    55  GLY55       0.1869
     50  C         47.3460   35.9290   22.7600 C.2    55  GLY55       0.2309
     51  O         47.1420   36.5530   23.7980 O.2    55  GLY55      -0.2863
     52  N         48.9530   38.9100   24.2040 N.3    58  ARG58      -0.1245
     53  CA        47.9600   39.8100   24.7940 C.3    58  ARG58       0.1563
     54  C         47.4350   39.2630   26.1170 C.2    58  ARG58       0.2260
     55  O         47.2820   40.0040   27.0970 O.2    58  ARG58      -0.2867
     56  CB        46.8190   40.0530   23.8120 C.3    58  ARG58       0.0307
     57  CG        45.8080   41.0960   24.2380 C.3    58  ARG58       0.0489
     58  CD        44.7570   41.3140   23.1550 C.3    58  ARG58       0.2205
     59  NE        45.3610   41.3720   21.8330 N.pl3  58  ARG58      -0.0865
     60  CZ        46.0150   42.4150   21.3500 C.cat  58  ARG58       0.5346
     61  NH1       46.5500   42.3460   20.1370 N.pl3  58  ARG58       0.1354
     62  NH2       46.1310   43.5290   22.0720 N.pl3  58  ARG58       0.1354
     63  N         40.4270   31.9630   20.6630 N.3    78  GLN78      -0.1231
     64  CA        40.6610   33.0050   19.6480 C.3    78  GLN78       0.1698
     65  C         39.3300   33.5140   19.1560 C.2    78  GLN78       0.2593
     66  O         38.4250   32.7480   18.7900 O.2    78  GLN78      -0.2718
     67  CB        41.5840   32.4540   18.5720 C.3    78  GLN78       0.0381
     68  CG        42.8850   31.8920   19.1620 C.3    78  GLN78       0.0905
     69  CD        43.8600   31.4500   18.0950 C.2    78  GLN78       0.2608
     70  OE1       43.4390   31.0280   17.0140 O.2    78  GLN78      -0.2717
     71  NE2       45.1540   31.5330   18.3840 N.am   78  GLN78      -0.0878
     72  N         39.1390   34.8280   19.1540 N.am   79  GLY79      -0.1942
     73  CA        37.9450   35.5290   18.8240 C.3    79  GLY79       0.2014
     74  C         37.3540   35.2890   17.4540 C.2    79  GLY79       0.2639
     75  O         36.3160   35.8810   17.0940 O.2    79  GLY79      -0.2714
     76  N         37.9260   34.3910   16.6940 N.am   80  ASP80      -0.1957
     77  CA        37.5770   33.9640   15.3770 C.3    80  ASP80       0.1840
     78  C         37.1630   32.5010   15.3280 C.2    80  ASP80       0.2621
     79  O         37.4390   31.8370   14.3120 O.2    80  ASP80      -0.2715
     80  CB        38.8640   34.1070   14.4950 C.3    80  ASP80       0.1450
     81  CG        40.0330   33.3970   15.1730 C.2    80  ASP80       0.3671
     82  OD1       40.0370   32.1440   15.2030 O.co2  80  ASP80      -0.2456
     83  OD2       40.9390   34.0860   15.6850 O.co2  80  ASP80      -0.2456
     84  N         36.5550   31.9530   16.3910 N.am   81  GLU81      -0.1977
     85  CA        36.2520   30.5290   16.3210 C.3    81  GLU81       0.1602
     86  C         34.8640   30.1780   15.8380 C.2    81  GLU81       0.2287
     87  O         33.8430   30.4250   16.4610 O.2    81  GLU81      -0.2864
     88  CB        36.7300   29.7520   17.5200 C.3    81  GLU81       0.0415
     89  CG        38.2200   29.4050   17.4760 C.3    81  GLU81       0.1163
     90  CD        38.6520   28.6740   16.2250 C.2    81  GLU81       0.3649
     91  OE1       39.7490   28.9820   15.6940 O.co2  81  GLU81      -0.2457
     92  OE2       37.9180   27.7740   15.7520 O.co2  81  GLU81      -0.2457
     93  N         46.0970   28.4930    5.3470 N.3   119  ASN119     -0.1240
     94  CA        45.3510   29.0880    6.4400 C.3   119  ASN119      0.1653
     95  C         44.6190   28.0140    7.2320 C.2   119  ASN119      0.2266
     96  O         43.9820   28.2920    8.2510 O.2   119  ASN119     -0.2867
     97  CB        44.4500   30.2180    6.0120 C.3   119  ASN119      0.1155
     98  CG        45.2240   31.3950    5.4430 C.2   119  ASN119      0.2627
     99  OD1       46.0550   32.0140    6.1080 O.2   119  ASN119     -0.2716
    100  ND2       44.9300   31.6820    4.1780 N.am  119  ASN119     -0.0877
    101  N         45.6130   25.2360    9.5240 N.3   121  VAL121     -0.1245
    102  CA        46.7830   24.7670   10.2450 C.3   121  VAL121      0.1561
    103  C         46.6730   23.2740   10.5470 C.2   121  VAL121      0.2260
    104  O         45.7050   22.8180   11.1550 O.2   121  VAL121     -0.2867
    105  CB        47.0250   25.5220   11.5630 C.3   121  VAL121      0.0252
    106  CG1       48.2470   24.9440   12.2940 C.3   121  VAL121      0.0019
    107  CG2       47.1970   27.0030   11.3030 C.3   121  VAL121      0.0019
    108  N         51.6550   25.0270    8.4880 N.3   136  ARG136     -0.1245
    109  CA        50.7080   25.4860    7.4610 C.3   136  ARG136      0.1563
    110  C         50.8650   24.5740    6.2490 C.2   136  ARG136      0.2260
    111  O         50.0320   24.5170    5.3580 O.2   136  ARG136     -0.2867
    112  CB        50.9820   26.9460    7.1250 C.3   136  ARG136      0.0307
    113  CG        50.4820   27.8940    8.2040 C.3   136  ARG136      0.0489
    114  CD        50.7660   29.3450    7.8330 C.3   136  ARG136      0.2205
    115  NE        50.5620   30.1880    9.0620 N.pl3 136  ARG136     -0.0865
    116  CZ        49.3000   30.4700    9.4170 C.cat 136  ARG136      0.5346
    117  NH1       48.3070   30.0290    8.6590 N.pl3 136  ARG136      0.1354
    118  NH2       49.0630   31.1670   10.4990 N.pl3 136  ARG136      0.1354
    119  N         43.1640   19.0450   11.7030 N.3   162  ARG162     -0.1231
    120  CA        43.1800   20.5000   11.5600 C.3   162  ARG162      0.1694
    121  C         43.1210   21.1320   12.9540 C.2   162  ARG162      0.2592
    122  O         42.1890   20.8590   13.6980 O.2   162  ARG162     -0.2718
    123  CB        41.9800   20.9490   10.7420 C.3   162  ARG162      0.0321
    124  CG        41.5780   22.4020   10.8880 C.3   162  ARG162      0.0489
    125  CD        42.0930   23.2390    9.7450 C.3   162  ARG162      0.2205
    126  NE        41.5190   24.5540    9.6440 N.pl3 162  ARG162     -0.0865
    127  CZ        40.4060   24.9450    9.0510 C.cat 162  ARG162      0.5346
    128  NH1       39.6050   24.0900    8.4380 N.pl3 162  ARG162      0.1354
    129  NH2       40.0870   26.2450    9.0650 N.pl3 162  ARG162      0.1354
    130  N         44.1110   21.9370   13.2750 N.am  163  HIS163     -0.1976
    131  CA        44.2300   22.5630   14.5830 C.3   163  HIS163      0.1656
    132  C         43.1880   23.6410   14.8250 C.2   163  HIS163      0.2291
    133  O         42.9290   24.4760   13.9530 O.2   163  HIS163     -0.2864
    134  CB        45.6520   23.1400   14.7330 C.3   163  HIS163      0.0771
    135  CG        45.8550   23.7920   16.0670 C.ar  163  HIS163      0.0820
    136  ND1       46.4750   25.0110   16.2210 N.ar  163  HIS163     -0.2267
    137  CD2       45.4730   23.4010   17.3050 C.ar  163  HIS163      0.1154
    138  CE1       46.4800   25.3300   17.5040 C.ar  163  HIS163      0.1986
    139  NE2       45.8740   24.3690   18.1780 N.ar  163  HIS163     -0.2212
    140  N         41.8100   26.9260   17.1670 N.3   165  GLY165     -0.1225
    141  CA        42.3440   28.0010   17.9690 C.3   165  GLY165      0.1811
    142  C         41.8430   28.0750   19.3870 C.2   165  GLY165      0.2280
    143  O         41.2270   29.0750   19.7780 O.2   165  GLY165     -0.2866
    144  N         43.3670   27.3060   23.3320 N.3   167  TYR167     -0.1241
    145  CA        44.4690   26.9080   24.1970 C.3   167  TYR167      0.1605
    146  C         43.9840   26.8080   25.6370 C.2   167  TYR167      0.2264
    147  O         42.9980   27.4520   25.9830 O.2   167  TYR167     -0.2867
    148  CB        45.6140   27.9510   24.1050 C.3   167  TYR167      0.0534
    149  CG        46.1710   27.9940   22.6940 C.ar  167  TYR167     -0.0201
    150  CD1       45.8650   29.0310   21.8290 C.ar  167  TYR167     -0.0009
    151  CD2       46.9480   26.9460   22.2220 C.ar  167  TYR167     -0.0009
    152  CE1       46.3540   29.0380   20.5330 C.ar  167  TYR167      0.0417
    153  CE2       47.4350   26.9390   20.9310 C.ar  167  TYR167      0.0417
    154  CZ        47.1290   27.9840   20.0940 C.ar  167  TYR167      0.1957
    155  OH        47.6080   27.9790   18.8050 O.3   167  TYR167     -0.2866
    156  N         54.2980   31.7730   11.3580 N.3   190  LYS190     -0.1231
    157  CA        53.2810   32.6580   11.9300 C.3   190  LYS190      0.1693
    158  C         52.2610   31.8240   12.6930 C.2   190  LYS190      0.2592
    159  O         51.0890   31.6810   12.3650 O.2   190  LYS190     -0.2718
    160  CB        52.6290   33.5140   10.8660 C.3   190  LYS190      0.0285
    161  CG        53.6010   34.2580    9.9630 C.3   190  LYS190      0.0035
    162  CD        54.3730   35.3140   10.7390 C.3   190  LYS190      0.0206
    163  CE        55.1540   36.1990    9.7850 C.3   190  LYS190      0.1093
    164  NZ        55.9000   37.2580   10.5050 N.3   190  LYS190     -0.1314
    165  N         52.7880   31.2120   13.7420 N.am  191  LEU191     -0.1966
    166  CA        51.9780   30.2850   14.5610 C.3   191  LEU191      0.1728
    167  C         52.5980   30.3180   15.9690 C.2   191  LEU191      0.2616
    168  O         53.5830   29.6310   16.2090 O.2   191  LEU191     -0.2715
    169  CB        52.1200   28.9360   13.9200 C.3   191  LEU191      0.0311
    170  CG        50.9940   28.0570   13.4830 C.3   191  LEU191      0.0022
    171  CD1       49.9330   28.7510   12.6420 C.3   191  LEU191      0.0001
    172  CD2       51.5790   26.8640   12.7040 C.3   191  LEU191      0.0001
    173  N         51.9740   31.0810   16.8440 N.am  192  GLU192     -0.1963
    174  CA        52.3470   31.3240   18.2060 C.3   192  GLU192      0.1733
    175  C         52.6470   30.0790   19.0040 C.2   192  GLU192      0.2616
    176  O         53.6080   30.0800   19.7960 O.2   192  GLU192     -0.2715
    177  CB        51.3130   32.1890   18.9460 C.3   192  GLU192      0.0429
    178  CG        50.0240   31.5310   19.3570 C.3   192  GLU192      0.1163
    179  CD        48.8740   32.5090   19.5530 C.2   192  GLU192      0.3649
    180  OE1       48.5430   32.8480   20.7180 O.co2 192  GLU192     -0.2457
    181  OE2       48.2880   32.9540   18.5420 O.co2 192  GLU192     -0.2457
    182  N         51.9090   28.9960   18.7890 N.am  193  GLN193     -0.1977
    183  CA        52.1380   27.7640   19.5220 C.3   193  GLN193      0.1601
    184  C         53.5420   27.2290   19.3370 C.2   193  GLN193      0.2287
    185  O         54.0730   26.5730   20.2700 O.2   193  GLN193     -0.2864
    186  CB        51.0740   26.7210   19.2220 C.3   193  GLN193      0.0394
    187  CG        51.0570   26.1460   17.8240 C.3   193  GLN193      0.0908
    188  CD        50.2990   27.0010   16.8400 C.2   193  GLN193      0.2608
    189  OE1       50.5300   28.2050   16.7360 O.2   193  GLN193     -0.2717
    190  NE2       49.3600   26.4030   16.1100 N.am  193  GLN193     -0.0878
@<TRIPOS>BOND
     1   100    98   am
     2    93    94    1
     3   111   110    2
     4    98    97    1
     5    98    99    2
     6    97    94    1
     7   110   109    1
     8    94    95    1
     9   112   109    1
    10   112   113    1
    11    95    96    2
    12   109   108    1
    13   114   113    1
    14   114   115    1
    15   128   127    1
    16   117   116    1
    17   127   129    1
    18   127   126    2
    19   115   116    2
    20   116   118    1
    21   101   102    1
    22   126   125    1
    23   125   124    1
    24   163   164    1
    25   163   162    1
    26   161   162    1
    27   161   160    1
    28   102   103    1
    29   102   105    1
    30   103   104    2
    31   123   124    1
    32   123   120    1
    33   160   157    1
    34   107   105    1
    35   156   157    1
    36   120   119    1
    37   120   121    1
    38   105   106    1
    39   157   158    1
    40   159   158    2
    41   171   170    1
    42   158   165   am
    43   172   170    1
    44    22    21    1
    45   121   130   am
    46   121   122    2
    47   130   131    1
    48   170   169    1
    49   165   166    1
    50   169   166    1
    51   133   132    2
    52    21    23    1
    53    21    20    2
    54    79    78    2
    55    80    81    1
    56    80    77    1
    57   166   167    1
    58   131   134    1
    59   131   132    1
    60   134   135    1
    61    20    19    1
    62    81    82   ar
    63    81    83   ar
    64    78    77    1
    65    78    84   am
    66    77    76    1
    67    91    90   ar
    68    92    90   ar
    69    86    85    1
    70    86    87    2
    71   167   168    2
    72   167   173   am
    73   135   136   ar
    74   135   137   ar
    75   190   188   am
    76   136   138   ar
    77    90    89    1
    78    85    84    1
    79    85    88    1
    80    19    18    1
    81    18    17    1
    82    76    74   am
    83   189   188    2
    84    15    16    2
    85    15    14    1
    86   188   187    1
    87   173   174    1
    88    40    39    2
    89    70    69    2
    90    37    36    2
    91    75    74    2
    92   140   141    1
    93   137   139   ar
    94    38    39    1
    95    38    35    1
    96    39    41   am
    97    74    73    1
    98    89    88    1
    99   138   139   ar
   100    17    14    1
   101   187   186    1
   102    35    36    1
   103    35    34    1
   104   141   142    1
   105    14    13    1
   106    36    42   am
   107    69    71   am
   108    69    68    1
   109   174   177    1
   110   174   175    1
   111   181   179   ar
   112    67    68    1
   113    67    64    1
   114    13    10   am
   115   182   175   am
   116   182   183    1
   117    66    65    2
   118   155   154    1
   119    73    72    1
   120    27    26    2
   121   177   178    1
   122   175   176    2
   123    72    65   am
   124    65    64    1
   125    42    43    1
   126   186   183    1
   127    34    26   am
   128    43    46    1
   129    43    44    1
   130   184   183    1
   131   184   185    2
   132   178   179    1
   133   142   143    2
   134    46    47    1
   135   179   180   ar
   136    10    11    2
   137    10     9    1
   138    26    25    1
   139    64    63    1
   140   154   152   ar
   141   154   153   ar
   142    61    60    1
   143     9    12    1
   144     9     8    1
   145     4     3    2
   146    48    44   am
   147    48    49    1
   148    44    45    2
   149   152   150   ar
   150    24    25    1
   151    25    28    1
   152   153   151   ar
   153     8     3   am
   154     3     2    1
   155    60    59    2
   156    60    62    1
   157    49    50    1
   158    28    29    1
   159   150   149   ar
   160    59    58    1
   161     5     6    1
   162     5     2    1
   163   151   149   ar
   164     6     7    1
   165     2     1    1
   166   149   148    1
   167     7     1    1
   168    50    51    2
   169    58    57    1
   170    29    31   ar
   171    29    30   ar
   172   144   145    1
   173    56    57    1
   174    56    53    1
   175    31    33   ar
   176    30    32   ar
   177   148   145    1
   178   145   146    1
   179    52    53    1
   180    53    54    1
   181    32    33   ar
   182   146   147    2
   183    54    55    2
