@<TRIPOS>MOLECULE
tmp/1vhlA00.pdb
 90 86 0 0 0
SMALL
GASTEIGER

@<TRIPOS>ATOM
      1  N         45.5150   23.4220   59.0640 N.3    12  ILE12      -0.1231
      2  CA        46.2520   24.5010   59.7230 C.3    12  ILE12       0.1692
      3  C         45.4260   25.7720   59.7750 C.2    12  ILE12       0.2593
      4  O         44.8240   26.2450   58.8090 O.2    12  ILE12      -0.2718
      5  CB        47.6060   24.7470   59.0510 C.3    12  ILE12       0.0266
      6  CG1       48.5000   25.6300   59.9600 C.3    12  ILE12       0.0019
      7  CG2       47.4470   25.3840   57.6720 C.3    12  ILE12       0.0020
      8  CD1       49.9550   25.5030   59.4350 C.3    12  ILE12       0.0001
      9  N         45.3680   26.3140   61.0180 N.am   13  GLY13      -0.1942
     10  CA        44.6600   27.5810   61.2060 C.3    13  GLY13       0.2014
     11  C         43.1630   27.4540   61.2630 C.2    13  GLY13       0.2640
     12  O         42.4530   28.4700   61.3250 O.2    13  GLY13      -0.2714
     13  N         42.5770   26.2580   61.4590 N.am   14  SER14      -0.1935
     14  CA        41.1300   26.1400   61.4900 C.3    14  SER14       0.2055
     15  C         40.4890   26.2900   62.8640 C.2    14  SER14       0.2644
     16  O         39.2990   26.6120   62.9590 O.2    14  SER14      -0.2714
     17  CB        40.6800   24.7890   60.8770 C.3    14  SER14       0.2130
     18  OG        41.2970   23.7310   61.6040 O.3    14  SER14      -0.2179
     19  N         41.2010   26.0060   63.9180 N.am   15  GLY15      -0.1939
     20  CA        40.6660   26.1350   65.2620 C.3    15  GLY15       0.2014
     21  C         40.8810   24.9320   66.1550 C.2    15  GLY15       0.2639
     22  O         40.1780   24.8240   67.1440 O.2    15  GLY15      -0.2714
     23  N         41.8150   24.0400   65.8040 N.am   16  LYS16      -0.1963
     24  CA        42.0180   22.8750   66.6530 C.3    16  LYS16       0.1728
     25  C         42.2510   23.2720   68.1000 C.2    16  LYS16       0.2617
     26  O         41.5280   22.8030   68.9750 O.2    16  LYS16      -0.2715
     27  CB        43.1520   21.9650   66.1500 C.3    16  LYS16       0.0311
     28  CG        42.7320   21.2730   64.8360 C.3    16  LYS16       0.0038
     29  CD        43.8330   20.3760   64.3110 C.3    16  LYS16       0.0206
     30  CE        45.0720   21.1830   63.9430 C.3    16  LYS16       0.1093
     31  NZ        44.8610   22.0310   62.7440 N.3    16  LYS16      -0.1314
     32  N         43.2390   24.1360   68.3430 N.am   17  SER17      -0.1936
     33  CA        43.5740   24.5170   69.7030 C.3    17  SER17       0.2055
     34  C         42.4420   25.2020   70.4340 C.2    17  SER17       0.2643
     35  O         42.1460   24.9840   71.6050 O.2    17  SER17      -0.2714
     36  CB        44.8040   25.4460   69.6660 C.3    17  SER17       0.2130
     37  OG        45.1440   25.8200   70.9910 O.3    17  SER17      -0.2179
     38  N         41.7970   26.1270   69.7090 N.am   18  THR18      -0.1950
     39  CA        40.6630   26.8860   70.2490 C.3    18  THR18       0.1897
     40  C         39.5150   25.9840   70.6650 C.2    18  THR18       0.2313
     41  O         38.9310   26.1090   71.7460 O.2    18  THR18      -0.2863
     42  CB        40.2080   27.8230   69.1030 C.3    18  THR18       0.1794
     43  OG1       41.3770   28.5960   68.7500 O.3    18  THR18      -0.2208
     44  CG2       39.0880   28.7260   69.5350 C.3    18  THR18       0.0378
     45  N         44.3080   33.5040   59.0050 N.3   141  ARG141     -0.1245
     46  CA        44.5630   33.2110   60.4260 C.3   141  ARG141      0.1563
     47  C         45.9280   32.6510   60.6830 C.2   141  ARG141      0.2260
     48  O         46.5430   33.0280   61.7090 O.2   141  ARG141     -0.2867
     49  CB        43.4250   32.3960   61.0410 C.3   141  ARG141      0.0307
     50  CG        42.0610   33.0750   60.9940 C.3   141  ARG141      0.0489
     51  CD        41.0220   32.3700   61.8350 C.3   141  ARG141      0.2205
     52  NE        39.6490   32.8080   61.5630 N.pl3 141  ARG141     -0.0865
     53  CZ        38.5580   32.1370   61.9200 C.cat 141  ARG141      0.5346
     54  NH1       38.6790   30.9770   62.5660 N.pl3 141  ARG141      0.1354
     55  NH2       37.3340   32.5780   61.6380 N.pl3 141  ARG141      0.1354
     56  N         48.7710   34.5740   62.9850 N.3   145  ARG145     -0.1245
     57  CA        49.2460   33.8150   64.1120 C.3   145  ARG145      0.1563
     58  C         50.7260   33.4850   64.0780 C.2   145  ARG145      0.2260
     59  O         51.3910   33.6160   65.1150 O.2   145  ARG145     -0.2867
     60  CB        48.4730   32.4830   64.2380 C.3   145  ARG145      0.0307
     61  CG        48.7730   31.7400   65.5240 C.3   145  ARG145      0.0489
     62  CD        48.2060   30.3260   65.5160 C.3   145  ARG145      0.2205
     63  NE        48.9340   29.4690   64.6000 N.pl3 145  ARG145     -0.0865
     64  CZ        48.5740   28.2480   64.2040 C.cat 145  ARG145      0.5346
     65  NH1       47.4620   27.6970   64.6610 N.pl3 145  ARG145      0.1354
     66  NH2       49.3270   27.5990   63.3280 N.pl3 145  ARG145      0.1354
     67  N         34.1590   27.2780   62.2200 N.3   176  ASN176     -0.1240
     68  CA        34.8740   28.3410   62.9110 C.3   176  ASN176      0.1653
     69  C         35.1630   29.5130   61.9880 C.2   176  ASN176      0.2266
     70  O         35.9920   30.3430   62.3420 O.2   176  ASN176     -0.2867
     71  CB        36.1590   27.7690   63.5090 C.3   176  ASN176      0.1155
     72  CG        36.7870   28.5480   64.6270 C.2   176  ASN176      0.2627
     73  OD1       36.0970   29.3040   65.3420 O.2   176  ASN176     -0.2716
     74  ND2       38.0920   28.4330   64.8450 N.am  176  ASN176     -0.0877
     75  N         33.3530   32.0120   61.3190 N.3   178  GLY178     -0.1210
     76  CA        32.4780   33.0730   61.7620 C.3   178  GLY178      0.1956
     77  C         33.0460   33.6290   63.0830 C.2   178  GLY178      0.2612
     78  O         34.2630   33.6410   63.2850 O.2   178  GLY178     -0.2717
     79  N         32.1540   33.9640   64.0040 N.am  179  ALA179     -0.1966
     80  CA        32.5200   34.5160   65.2890 C.3   179  ALA179      0.1713
     81  C         33.1580   33.5430   66.2520 C.2   179  ALA179      0.2458
     82  O         32.6260   32.4720   66.5530 O.2   179  ALA179     -0.2730
     83  CB        31.2820   35.1440   65.9460 C.3   179  ALA179      0.0333
     84  N         34.2650   33.9500   66.8640 N.am  180  PRO180     -0.2727
     85  CA        34.9970   33.1490   67.8320 C.3   180  PRO180      0.1402
     86  C         34.1300   32.6870   68.9870 C.2   180  PRO180      0.2269
     87  O         34.3530   31.6140   69.5720 O.2   180  PRO180     -0.2865
     88  CB        36.1080   34.0640   68.3230 C.3   180  PRO180      0.0296
     89  CG        35.7810   35.4270   67.8260 C.3   180  PRO180      0.0237
     90  CD        34.9570   35.2320   66.5840 C.3   180  PRO180      0.0939
@<TRIPOS>BOND
     1     7     5    1
     2     4     3    2
     3    45    46    1
     4     5     2    1
     5     5     6    1
     6     1     2    1
     7     8     6    1
     8     2     3    1
     9     3     9   am
    10    46    47    1
    11    46    49    1
    12    47    48    2
    13    17    14    1
    14    17    18    1
    15    50    49    1
    16    50    51    1
    17     9    10    1
    18    10    11    1
    19    11    12    2
    20    11    13   am
    21    75    76    1
    22    13    14    1
    23    14    15    1
    24    52    51    1
    25    52    53    2
    26    55    53    1
    27    76    77    1
    28    53    54    1
    29    69    70    2
    30    69    68    1
    31    67    68    1
    32    31    30    1
    33    15    16    2
    34    15    19   am
    35    68    71    1
    36    56    57    1
    37    77    78    2
    38    77    79   am
    39    66    64    1
    40    71    72    1
    41    19    20    1
    42    30    29    1
    43    79    80    1
    44    58    57    1
    45    58    59    2
    46    57    60    1
    47    64    63    2
    48    64    65    1
    49    60    61    1
    50    29    28    1
    51    63    62    1
    52    72    74   am
    53    72    73    2
    54    28    27    1
    55    20    21    1
    56    80    83    1
    57    80    81    1
    58    62    61    1
    59    23    21   am
    60    23    24    1
    61    27    24    1
    62    21    22    2
    63    81    82    2
    64    81    84   am
    65    90    84    1
    66    90    89    1
    67    24    25    1
    68    84    85    1
    69    89    88    1
    70    85    88    1
    71    85    86    1
    72    25    32   am
    73    25    26    2
    74    32    33    1
    75    43    42    1
    76    86    87    2
    77    42    44    1
    78    42    39    1
    79    36    33    1
    80    36    37    1
    81    33    34    1
    82    38    39    1
    83    38    34   am
    84    39    40    1
    85    34    35    2
    86    40    41    2
