@<TRIPOS>MOLECULE
tmp/1vhnA00.pdb
 189 177 0 0 0
SMALL
GASTEIGER

@<TRIPOS>ATOM
      1  N         -7.8550   21.1330    8.0430 N.3     6  ALA6       -0.1231
      2  CA        -6.4400   20.9490    7.6570 C.3     6  ALA6        0.1679
      3  C         -6.2190   19.5590    7.1150 C.2     6  ALA6        0.2434
      4  O         -7.0270   18.6490    7.3310 O.2     6  ALA6       -0.2733
      5  CB        -5.6460   21.0510    8.9810 C.3     6  ALA6        0.0304
      6  N         -5.1360   19.3250    6.3510 N.am    7  PRO7       -0.2729
      7  CA        -4.8040   17.9950    5.9130 C.3     7  PRO7        0.1401
      8  C         -4.2780   17.1910    7.1090 C.2     7  PRO7        0.2269
      9  O         -3.5210   17.7710    7.9340 O.2     7  PRO7       -0.2865
     10  CB        -3.6140   18.1850    4.9570 C.3     7  PRO7        0.0296
     11  CG        -3.0620   19.5270    5.2960 C.3     7  PRO7        0.0237
     12  CD        -4.1230   20.3340    5.9960 C.3     7  PRO7        0.0939
     13  N         -2.7740   13.3410    7.4790 N.3     8  ALA8       -0.1245
     14  CA        -2.5410   11.9840    6.9650 C.3     8  ALA8        0.1562
     15  C         -3.1590   10.9490    7.8900 C.2     8  ALA8        0.2260
     16  O         -3.0030   10.9630    9.1130 O.2     8  ALA8       -0.2867
     17  CB        -1.0310   11.7880    6.8430 C.3     8  ALA8        0.0290
     18  N         -6.3470   10.6160    8.4720 N.3    10  TYR10      -0.1241
     19  CA        -7.6550   11.0250    8.9540 C.3    10  TYR10       0.1605
     20  C         -8.5180   11.7170    7.9170 C.2    10  TYR10       0.2264
     21  O         -9.6830   11.3650    7.7600 O.2    10  TYR10      -0.2867
     22  CB        -7.4850   12.0540   10.1170 C.3    10  TYR10       0.0534
     23  CG        -6.9490   11.4080   11.3820 C.ar   10  TYR10      -0.0201
     24  CD1       -5.5800   11.2070   11.5240 C.ar   10  TYR10      -0.0009
     25  CD2       -7.8130   10.9920   12.3670 C.ar   10  TYR10      -0.0009
     26  CE1       -5.0840   10.5990   12.6790 C.ar   10  TYR10       0.0417
     27  CE2       -7.3210   10.3860   13.5350 C.ar   10  TYR10       0.0417
     28  CZ        -5.9590   10.1940   13.6440 C.ar   10  TYR10       0.1957
     29  OH        -5.4710    9.5780   14.7960 O.3    10  TYR10      -0.2866
     30  N         -4.9560   14.1370    2.0380 N.3    30  GLU30      -0.1245
     31  CA        -3.8360   13.7220    2.9260 C.3    30  GLU30       0.1567
     32  C         -2.5830   13.9700    2.0550 C.2    30  GLU30       0.2260
     33  O         -2.7070   13.9640    0.8130 O.2    30  GLU30      -0.2867
     34  CB        -3.9880   12.2350    3.2120 C.3    30  GLU30       0.0388
     35  CG        -5.2540   11.9730    4.0740 C.3    30  GLU30       0.1160
     36  CD        -5.6810   10.5210    3.9010 C.2    30  GLU30       0.3649
     37  OE1       -5.1770    9.6790    4.6750 O.co2  30  GLU30      -0.2457
     38  OE2       -6.4740   10.2490    2.9880 O.co2  30  GLU30      -0.2457
     39  N         -2.5770   18.1280   -1.6990 N.3    57  GLN57      -0.1245
     40  CA        -1.3080   18.5260   -1.0820 C.3    57  GLN57       0.1566
     41  C         -0.2300   17.5090   -1.4720 C.2    57  GLN57       0.2260
     42  O         -0.4300   16.3060   -1.2930 O.2    57  GLN57      -0.2867
     43  CB        -1.3960   18.5780    0.4540 C.3    57  GLN57       0.0367
     44  CG        -0.0810   19.1730    1.0160 C.3    57  GLN57       0.0905
     45  CD        -0.0810   19.1260    2.5460 C.2    57  GLN57       0.2608
     46  OE1       -0.0060   18.0560    3.1330 O.2    57  GLN57      -0.2717
     47  NE2       -0.0870   20.3200    3.1280 N.am   57  GLN57      -0.0878
     48  N          3.3090   20.8020    0.8970 N.3    83  ASN83      -0.1240
     49  CA         3.6010   20.6250    2.3330 C.3    83  ASN83       0.1653
     50  C          5.0540   21.0750    2.5960 C.2    83  ASN83       0.2266
     51  O          6.0200   20.4570    2.1200 O.2    83  ASN83      -0.2867
     52  CB         3.4820   19.1420    2.7010 C.3    83  ASN83       0.1155
     53  CG         3.6440   18.9310    4.1960 C.2    83  ASN83       0.2627
     54  OD1        4.6270   19.3890    4.7480 O.2    83  ASN83      -0.2716
     55  ND2        2.6700   18.2920    4.8150 N.am   83  ASN83      -0.0877
     56  N          5.4850   19.6850    7.7370 N.3    86  CYS86      -0.1235
     57  CA         5.5520   18.4390    8.5040 C.3    86  CYS86       0.1677
     58  C          6.8610   18.1780    9.2160 C.2    86  CYS86       0.2270
     59  O          7.9110   18.1320    8.5810 O.2    86  CYS86      -0.2867
     60  CB         5.3340   17.2680    7.4970 C.3    86  CYS86       0.0956
     61  SG         5.2620   15.6490    8.3080 S.3    86  CYS86      -0.0801
     62  N          7.3210   15.2090   10.9210 N.3    88  VAL88      -0.1245
     63  CA         7.4570   13.7540   11.0180 C.3    88  VAL88       0.1561
     64  C          8.8450   13.2920   10.6130 C.2    88  VAL88       0.2260
     65  O          9.3380   13.5410    9.5130 O.2    88  VAL88      -0.2867
     66  CB         6.3910   13.0320   10.1800 C.3    88  VAL88       0.0252
     67  CG1        6.6590   11.5360   10.0750 C.3    88  VAL88       0.0019
     68  CG2        5.0060   13.2680   10.7800 C.3    88  VAL88       0.0019
     69  N          1.6120   25.1620    2.6870 N.3   125  LYS125     -0.1245
     70  CA         1.2740   25.0280    4.1200 C.3   125  LYS125      0.1561
     71  C          2.6470   24.8290    4.7810 C.2   125  LYS125      0.2260
     72  O          3.3770   23.9090    4.4430 O.2   125  LYS125     -0.2867
     73  CB         0.3150   23.8830    4.3810 C.3   125  LYS125      0.0271
     74  CG        -0.0010   23.7730    5.8830 C.3   125  LYS125      0.0035
     75  CD        -1.1930   22.8420    6.1010 C.3   125  LYS125      0.0206
     76  CE        -1.4700   22.7010    7.5980 C.3   125  LYS125      0.1093
     77  NZ        -0.4020   21.8830    8.2460 N.3   125  LYS125     -0.1314
     78  N          5.4060   26.2500    8.3490 N.3   127  ARG127     -0.1245
     79  CA         5.5750   26.5880    9.7730 C.3   127  ARG127      0.1563
     80  C          6.3720   27.8760    9.8780 C.2   127  ARG127      0.2260
     81  O          6.6510   28.5670    8.9070 O.2   127  ARG127     -0.2867
     82  CB         6.2910   25.4320   10.4860 C.3   127  ARG127      0.0307
     83  CG         5.2990   24.3290   10.9180 C.3   127  ARG127      0.0489
     84  CD         6.0290   23.3060   11.7900 C.3   127  ARG127      0.2205
     85  NE         5.0930   22.2520   12.1940 N.pl3 127  ARG127     -0.0865
     86  CZ         5.0310   21.6860   13.3960 C.cat 127  ARG127      0.5346
     87  NH1        5.8270   22.0490   14.3850 N.pl3 127  ARG127      0.1354
     88  NH2        4.1380   20.7230   13.5940 N.pl3 127  ARG127      0.1354
     89  N          1.1410   26.8830   10.3660 N.3   153  HIS153     -0.1241
     90  CA         1.0080   26.2950   11.7260 C.3   153  HIS153      0.1621
     91  C          2.0800   27.1020   12.4930 C.2   153  HIS153      0.2264
     92  O          3.2640   27.0190   12.1510 O.2   153  HIS153     -0.2867
     93  CB         1.3850   24.8260   11.7250 C.3   153  HIS153      0.0745
     94  CG         1.3810   24.1960   13.0940 C.ar  153  HIS153      0.0817
     95  ND1        1.6780   22.8410   13.2080 N.ar  153  HIS153     -0.2268
     96  CD2        1.2280   24.6850   14.3420 C.ar  153  HIS153      0.1154
     97  CE1        1.6510   22.5410   14.5240 C.ar  153  HIS153      0.1986
     98  NE2        1.3690   23.6240   15.2150 N.ar  153  HIS153     -0.2212
     99  N          4.2970   27.1890   14.7960 N.3   155  ARG155     -0.1245
    100  CA         5.3120   26.5250   15.5860 C.3   155  ARG155      0.1563
    101  C          6.5300   26.3580   14.6480 C.2   155  ARG155      0.2260
    102  O          6.3530   26.5280   13.4330 O.2   155  ARG155     -0.2867
    103  CB         4.9490   25.0990   16.0260 C.3   155  ARG155      0.0307
    104  CG         4.0110   25.0390   17.2630 C.3   155  ARG155      0.0489
    105  CD         3.8310   23.5680   17.6080 C.3   155  ARG155      0.2205
    106  NE         3.2150   23.4130   18.9590 N.pl3 155  ARG155     -0.0865
    107  CZ         1.8960   23.3790   19.1430 C.cat 155  ARG155      0.5346
    108  NH1        1.0100   23.4870   18.1520 N.pl3 155  ARG155      0.1354
    109  NH2        1.4320   23.2230   20.3880 N.pl3 155  ARG155      0.1354
    110  N          5.0260   18.9810   18.1740 N.3   161  PHE161     -0.1241
    111  CA         3.7900   19.4000   18.8250 C.3   161  PHE161      0.1605
    112  C          4.0240   19.8600   20.2720 C.2   161  PHE161      0.2264
    113  O          3.0540   19.9990   21.0180 O.2   161  PHE161     -0.2867
    114  CB         2.6800   18.3550   18.7100 C.3   161  PHE161      0.0534
    115  CG         2.1480   18.3210   17.2950 C.ar  161  PHE161     -0.0203
    116  CD1        2.8460   17.6740   16.2810 C.ar  161  PHE161     -0.0042
    117  CD2        0.9950   19.0250   16.9900 C.ar  161  PHE161     -0.0042
    118  CE1        2.3980   17.7010   14.9740 C.ar  161  PHE161     -0.0003
    119  CE2        0.5310   19.0280   15.6790 C.ar  161  PHE161     -0.0003
    120  CZ         1.2280   18.3790   14.6840 C.ar  161  PHE161     -0.0000
    121  N         -2.9390   28.2890   11.9360 N.3   182  SER182     -0.1202
    122  CA        -3.1910   26.9210   12.4000 C.3   182  SER182      0.2020
    123  C         -2.3570   26.6600   13.6600 C.2   182  SER182      0.2619
    124  O         -1.3560   27.3290   13.8860 O.2   182  SER182     -0.2717
    125  CB        -2.7080   25.9280   11.3150 C.3   182  SER182      0.2103
    126  OG        -2.9020   24.5600   11.6940 O.3   182  SER182     -0.2182
    127  N         -2.8870   25.7530   14.4970 N.am  183  GLY183     -0.1942
    128  CA        -2.1350   25.3590   15.7060 C.3   183  GLY183      0.2014
    129  C         -2.9790   25.5500   16.9710 C.2   183  GLY183      0.2639
    130  O         -3.4110   26.6610   17.2460 O.2   183  GLY183     -0.2714
    131  N         -3.1280   24.4750   17.7360 N.am  184  ASP184     -0.1957
    132  CA        -3.8440   24.4720   18.9930 C.3   184  ASP184      0.1840
    133  C         -5.2550   25.0050   18.9140 C.2   184  ASP184      0.2622
    134  O         -5.7580   25.5880   19.8850 O.2   184  ASP184     -0.2715
    135  CB        -3.0170   25.3050   20.0120 C.3   184  ASP184      0.1450
    136  CG        -1.7100   24.6600   20.4030 C.2   184  ASP184      0.3671
    137  OD1       -1.4710   23.4760   20.1450 O.co2 184  ASP184     -0.2456
    138  OD2       -0.9020   25.3860   21.0520 O.co2 184  ASP184     -0.2456
    139  N         -5.9650   24.7370   17.8170 N.am  185  ILE185     -0.1963
    140  CA        -7.3480   25.2400   17.6970 C.3   185  ILE185      0.1727
    141  C         -8.3160   24.1280   18.0290 C.2   185  ILE185      0.2616
    142  O         -8.6800   23.2470   17.2340 O.2   185  ILE185     -0.2715
    143  CB        -7.6180   25.6900   16.2490 C.3   185  ILE185      0.0290
    144  CG1       -6.5720   26.6450   15.7350 C.3   185  ILE185      0.0022
    145  CG2       -9.0340   26.2890   16.1820 C.3   185  ILE185      0.0023
    146  CD1       -6.4610   27.9240   16.4880 C.3   185  ILE185      0.0001
    147  N         -8.7420   24.0990   19.3020 N.am  186  PHE186     -0.1974
    148  CA        -9.6330   23.0590   19.7710 C.3   186  PHE186      0.1639
    149  C        -11.0470   23.5240   20.0500 C.2   186  PHE186      0.2290
    150  O        -11.9380   22.6810   20.1790 O.2   186  PHE186     -0.2864
    151  CB        -9.0070   22.4180   21.0380 C.3   186  PHE186      0.0560
    152  CG        -7.9230   21.4260   20.7130 C.ar  186  PHE186     -0.0200
    153  CD1       -6.6220   21.8670   20.4900 C.ar  186  PHE186     -0.0042
    154  CD2       -8.1850   20.0640   20.6350 C.ar  186  PHE186     -0.0042
    155  CE1       -5.6040   20.9610   20.1930 C.ar  186  PHE186     -0.0003
    156  CE2       -7.1730   19.1720   20.3400 C.ar  186  PHE186     -0.0003
    157  CZ        -5.8810   19.6120   20.1330 C.ar  186  PHE186     -0.0000
    158  N         -7.3320   27.0970   10.1070 N.3   204  LEU204     -0.1245
    159  CA        -7.5740   25.6840    9.8700 C.3   204  LEU204      0.1561
    160  C         -7.8230   24.9690   11.2140 C.2   204  LEU204      0.2260
    161  O         -7.2650   25.3740   12.2260 O.2   204  LEU204     -0.2867
    162  CB        -6.3340   24.9660    9.3020 C.3   204  LEU204      0.0270
    163  CG        -5.8340   25.5110    7.9690 C.3   204  LEU204      0.0019
    164  CD1       -4.6160   24.6690    7.5570 C.3   204  LEU204      0.0001
    165  CD2       -6.9040   25.4580    6.8930 C.3   204  LEU204      0.0001
    166  N         -7.6080   21.1460   12.8510 N.3   206  ALA206     -0.1231
    167  CA        -6.9750   19.8560   12.6640 C.3   206  ALA206      0.1694
    168  C         -7.3470   18.8930   13.7730 C.2   206  ALA206      0.2591
    169  O         -8.4320   18.2930   13.7330 O.2   206  ALA206     -0.2718
    170  CB        -5.4710   20.0210   12.4900 C.3   206  ALA206      0.0304
    171  N         -6.4920   18.7860   14.8130 N.am  207  ARG207     -0.1980
    172  CA        -6.8020   17.8390   15.8770 C.3   207  ARG207      0.1597
    173  C         -8.1420   18.1290   16.5090 C.2   207  ARG207      0.2287
    174  O         -8.8100   17.1900   16.9660 O.2   207  ARG207     -0.2864
    175  CB        -5.6660   17.9020   16.9470 C.3   207  ARG207      0.0334
    176  CG        -4.4010   17.2590   16.4040 C.3   207  ARG207      0.0492
    177  CD        -3.2520   17.3630   17.4160 C.3   207  ARG207      0.2205
    178  NE        -2.8620   18.7500   17.6370 N.pl3 207  ARG207     -0.0865
    179  CZ        -2.0780   19.1580   18.6350 C.cat 207  ARG207      0.5346
    180  NH1       -1.5770   18.2670   19.5120 N.pl3 207  ARG207      0.1354
    181  NH2       -1.7930   20.4290   18.7500 N.pl3 207  ARG207      0.1354
    182  N        -11.2150   16.0950   14.9770 N.3   210  ILE210     -0.1245
    183  CA       -11.2930   14.6240   14.9440 C.3   210  ILE210      0.1561
    184  C        -12.4290   14.1220   15.8270 C.2   210  ILE210      0.2260
    185  O        -12.4060   14.2710   17.0510 O.2   210  ILE210     -0.2867
    186  CB        -9.9520   14.0080   15.3710 C.3   210  ILE210      0.0252
    187  CG1       -8.8260   14.4520   14.4340 C.3   210  ILE210      0.0019
    188  CG2      -10.0520   12.4810   15.4110 C.3   210  ILE210      0.0019
    189  CD1       -7.4510   14.1040   14.9810 C.3   210  ILE210      0.0001
@<TRIPOS>BOND
     1    39    40    1
     2    41    42    2
     3    41    40    1
     4    40    43    1
     5    43    44    1
     6    33    32    2
     7    48    49    1
     8    44    45    1
     9    30    31    1
    10    32    31    1
    11    51    50    2
    12    49    50    1
    13    49    52    1
    14    45    47   am
    15    45    46    2
    16    69    70    1
    17    52    53    1
    18    31    34    1
    19    38    36   ar
    20    34    35    1
    21    36    35    1
    22    36    37   ar
    23    70    73    1
    24    70    71    1
    25    53    54    2
    26    53    55   am
    27    73    74    1
    28    72    71    2
    29    10    11    1
    30    10     7    1
    31    11    12    1
    32    74    75    1
    33     7     6    1
    34     7     8    1
    35    12     6    1
    36    75    76    1
    37     6     3   am
    38    17    14    1
    39   165   163    1
    40    14    13    1
    41    14    15    1
    42     8     9    2
    43     3     4    2
    44     3     2    1
    45    60    61    1
    46    60    57    1
    47   164   163    1
    48    76    77    1
    49     2     1    1
    50     2     5    1
    51    56    57    1
    52    21    20    2
    53    15    16    2
    54    20    19    1
    55   163   162    1
    56    78    79    1
    57    18    19    1
    58    57    58    1
    59    59    58    2
    60    81    80    2
    61    19    22    1
    62   162   159    1
    63    65    64    2
    64    79    80    1
    65    79    82    1
    66   159   158    1
    67   159   160    1
    68    67    66    1
    69    22    23    1
    70    66    68    1
    71    66    63    1
    72    89    90    1
    73    82    83    1
    74    64    63    1
    75    83    84    1
    76    62    63    1
    77   160   161    2
    78   125   126    1
    79   125   122    1
    80    23    24   ar
    81    23    25   ar
    82    24    26   ar
    83    93    90    1
    84    93    94    1
    85    90    91    1
    86    84    85    1
    87   121   122    1
    88    92    91    2
    89    85    86    2
    90    25    27   ar
    91   122   123    1
    92   170   167    1
    93   167   166    1
    94   167   168    1
    95    26    28   ar
    96    94    95   ar
    97    94    96   ar
    98    95    97   ar
    99    86    88    1
   100    86    87    1
   101   102   101    2
   102    27    28   ar
   103    28    29    1
   104   123   124    2
   105   123   127   am
   106   169   168    2
   107   168   171   am
   108    96    98   ar
   109   187   189    1
   110   187   186    1
   111   127   128    1
   112    97    98   ar
   113   101   100    1
   114   120   118   ar
   115   120   119   ar
   116    99   100    1
   117   171   172    1
   118   183   182    1
   119   183   186    1
   120   183   184    1
   121   118   116   ar
   122   186   188    1
   123   100   103    1
   124   119   117   ar
   125   128   129    1
   126   144   143    1
   127   144   146    1
   128   184   185    2
   129   172   173    1
   130   172   175    1
   131   103   104    1
   132   145   143    1
   133   143   140    1
   134   116   115   ar
   135   176   175    1
   136   176   177    1
   137   173   174    2
   138   129   130    2
   139   129   131   am
   140   117   115   ar
   141   142   141    2
   142   104   105    1
   143   115   114    1
   144   177   178    1
   145   105   106    1
   146   178   179    2
   147   140   139    1
   148   140   141    1
   149   131   132    1
   150   139   133   am
   151   141   147   am
   152   108   107    1
   153   110   111    1
   154   179   181    1
   155   179   180    1
   156   114   111    1
   157   111   112    1
   158   133   132    1
   159   133   134    2
   160   106   107    2
   161   132   135    1
   162   107   109    1
   163   147   148    1
   164   148   149    1
   165   148   151    1
   166   135   136    1
   167   149   150    2
   168   157   155   ar
   169   157   156   ar
   170   137   136   ar
   171   155   153   ar
   172   112   113    2
   173   156   154   ar
   174   136   138   ar
   175   153   152   ar
   176   154   152   ar
   177   152   151    1
