@<TRIPOS>MOLECULE
tmp/1vhrA00.pdb
 83 80 0 0 0
SMALL
GASTEIGER

@<TRIPOS>ATOM
      1  N         -5.5350    3.1030   -2.6270 N.3    18  LEU18      -0.1245
      2  CA        -5.6830    4.1190   -1.5850 C.3    18  LEU18       0.1561
      3  C         -5.1200    3.5560   -0.2990 C.2    18  LEU18       0.2260
      4  O         -5.1270    2.3450   -0.1260 O.2    18  LEU18      -0.2867
      5  CB        -7.1730    4.4610   -1.4020 C.3    18  LEU18       0.0270
      6  CG        -7.7620    5.3290   -2.5230 C.3    18  LEU18       0.0019
      7  CD1       -9.2540    5.5200   -2.2890 C.3    18  LEU18       0.0001
      8  CD2       -7.0650    6.6920   -2.5700 C.3    18  LEU18       0.0001
      9  N        -10.8020   19.8020    2.6330 N.3    62  MET62      -0.1245
     10  CA        -9.5940   19.2430    2.0020 C.3    62  MET62       0.1570
     11  C         -8.3420   19.6670    2.7970 C.2    62  MET62       0.2261
     12  O         -7.1940   19.4930    2.3620 O.2    62  MET62      -0.2867
     13  CB        -9.4760   19.7370    0.5550 C.3    62  MET62       0.0387
     14  CG       -10.2730   18.9160   -0.4410 C.3    62  MET62       0.0595
     15  SD        -9.9670   17.1340   -0.2180 S.3    62  MET62      -0.1393
     16  CE        -8.2300   17.0250   -0.7250 C.3    62  MET62       0.0692
     17  N         -4.0940   20.4930   -2.8510 N.3    85  ASP85      -0.1239
     18  CA        -3.6880   19.3680   -3.6700 C.3    85  ASP85       0.1674
     19  C         -4.1100   19.6070   -5.1060 C.2    85  ASP85       0.2266
     20  O         -5.0330   18.9470   -5.5710 O.2    85  ASP85      -0.2867
     21  CB        -4.3160   18.0570   -3.1830 C.3    85  ASP85       0.1410
     22  CG        -3.8270   16.8420   -3.9890 C.2    85  ASP85       0.3668
     23  OD1       -2.6470   16.8500   -4.4120 O.co2  85  ASP85      -0.2456
     24  OD2       -4.6110   15.8780   -4.1880 O.co2  85  ASP85      -0.2456
     25  N         -1.2600   15.1220    5.8900 N.3   117  CYS117     -0.1221
     26  CA        -2.1170   16.0090    5.1140 C.3   117  CYS117      0.1808
     27  C         -3.5380   15.5130    5.4010 C.2   117  CYS117      0.2601
     28  O         -3.7760   15.0050    6.4960 O.2   117  CYS117     -0.2717
     29  CB        -1.7370   16.0380    3.6240 C.3   117  CYS117      0.0970
     30  SG        -1.6100   14.4820    2.7510 S.3   117  CYS117     -0.0800
     31  N         -4.4760   15.6130    4.4720 N.am  118  ARG118     -0.1965
     32  CA        -5.8370   15.1520    4.7400 C.3   118  ARG118      0.1729
     33  C         -5.8850   13.6020    4.6880 C.2   118  ARG118      0.2616
     34  O         -6.3860   12.9430    5.6190 O.2   118  ARG118     -0.2715
     35  CB        -6.8270   15.7810    3.7420 C.3   118  ARG118      0.0348
     36  CG        -8.2760   15.4050    3.9490 C.3   118  ARG118      0.0492
     37  CD        -8.8610   16.1630    5.0830 C.3   118  ARG118      0.2205
     38  NE       -10.1940   15.6900    5.4170 N.pl3 118  ARG118     -0.0865
     39  CZ       -11.0890   16.4110    6.0890 C.cat 118  ARG118      0.5346
     40  NH1      -10.8040   17.6410    6.4910 N.pl3 118  ARG118      0.1354
     41  NH2      -12.2760   15.9110    6.3600 N.pl3 118  ARG118      0.1354
     42  N         -5.3440   13.0300    3.6150 N.am  119  GLU119     -0.1963
     43  CA        -5.3260   11.5690    3.4990 C.3   119  GLU119      0.1733
     44  C         -3.9410   10.9320    3.6240 C.2   119  GLU119      0.2617
     45  O         -3.8480    9.7250    3.8300 O.2   119  GLU119     -0.2715
     46  CB        -5.9630   11.1200    2.1680 C.3   119  GLU119      0.0429
     47  CG        -7.4150   11.5850    1.9650 C.3   119  GLU119      0.1163
     48  CD        -8.3770   11.0570    3.0020 C.2   119  GLU119      0.3649
     49  OE1       -8.1790    9.9340    3.5110 O.co2 119  GLU119     -0.2457
     50  OE2       -9.3440   11.7810    3.3200 O.co2 119  GLU119     -0.2457
     51  N         -2.8830   11.7280    3.5250 N.am  120  GLY120     -0.1940
     52  CA        -1.5360   11.1930    3.5760 C.3   120  GLY120      0.2014
     53  C         -1.3260   10.4920    2.2420 C.2   120  GLY120      0.2639
     54  O         -0.6440    9.4820    2.1860 O.2   120  GLY120     -0.2714
     55  N         -1.7770   11.1170    1.1500 N.am  121  TYR121     -0.1959
     56  CA        -1.7440   10.4830   -0.1810 C.3   121  TYR121      0.1771
     57  C         -1.0120   11.2780   -1.2520 C.2   121  TYR121      0.2620
     58  O         -0.3130   10.6970   -2.0920 O.2   121  TYR121     -0.2715
     59  CB        -3.2100   10.2100   -0.6130 C.3   121  TYR121      0.0574
     60  CG        -3.4060    9.3070   -1.8140 C.ar  121  TYR121     -0.0198
     61  CD1       -3.1530    7.9280   -1.7190 C.ar  121  TYR121     -0.0009
     62  CD2       -3.8270    9.8260   -3.0550 C.ar  121  TYR121     -0.0009
     63  CE1       -3.3280    7.0780   -2.8050 C.ar  121  TYR121      0.0417
     64  CE2       -4.0080    8.9770   -4.1670 C.ar  121  TYR121      0.0417
     65  CZ        -3.7450    7.6050   -4.0220 C.ar  121  TYR121      0.1957
     66  OH        -3.9180    6.7260   -5.0740 O.3   121  TYR121     -0.2866
     67  N         -1.1780   12.5900   -1.2570 N.am  122  SER122     -0.1936
     68  CA        -0.5090   13.4030   -2.2540 C.3   122  SER122      0.2055
     69  C          0.3930   14.5320   -1.7340 C.2   122  SER122      0.2642
     70  O          1.5550   14.6310   -2.1370 O.2   122  SER122     -0.2714
     71  CB        -1.5590   13.9620   -3.2260 C.3   122  SER122      0.2130
     72  OG        -0.9690   14.6920   -4.2970 O.3   122  SER122     -0.2179
     73  N         -0.1080   15.3500   -0.8180 N.am  123  ARG123     -0.1977
     74  CA         0.6880   16.4760   -0.3130 C.3   123  ARG123      0.1597
     75  C          1.8870   16.1010    0.6040 C.2   123  ARG123      0.2287
     76  O          3.0320   16.5020    0.3550 O.2   123  ARG123     -0.2864
     77  CB        -0.2330   17.5200    0.3680 C.3   123  ARG123      0.0334
     78  CG        -1.0390   18.4110   -0.6040 C.3   123  ARG123      0.0492
     79  CD        -2.1860   19.1560    0.0710 C.3   123  ARG123      0.2205
     80  NE        -3.2970   18.2960    0.4710 N.pl3 123  ARG123     -0.0865
     81  CZ        -4.4580   18.7130    0.9640 C.cat 123  ARG123      0.5346
     82  NH1       -4.7120   19.9940    1.1440 N.pl3 123  ARG123      0.1354
     83  NH2       -5.3920   17.8400    1.2750 N.pl3 123  ARG123      0.1354
@<TRIPOS>BOND
     1    20    19    2
     2    19    18    1
     3    66    65    1
     4    23    22   ar
     5    72    71    1
     6    24    22   ar
     7    64    65   ar
     8    64    62   ar
     9    65    63   ar
    10    22    21    1
    11    18    21    1
    12    18    17    1
    13    71    68    1
    14    62    60   ar
    15    63    61   ar
    16     1     2    1
    17     8     6    1
    18     6     7    1
    19     6     5    1
    20    68    69    1
    21    68    67    1
    22    70    69    2
    23    58    57    2
    24    60    61   ar
    25    60    59    1
    26    69    73   am
    27     2     5    1
    28     2     3    1
    29    67    57   am
    30    57    56    1
    31    73    74    1
    32    16    15    1
    33    59    56    1
    34    78    79    1
    35    78    77    1
    36    14    15    1
    37    14    13    1
    38    74    77    1
    39    74    75    1
    40     3     4    2
    41    56    55    1
    42    79    80    1
    43    76    75    2
    44    80    81    2
    45    13    10    1
    46    81    82    1
    47    81    83    1
    48    55    53   am
    49    47    46    1
    50    47    48    1
    51    10     9    1
    52    10    11    1
    53    46    43    1
    54    54    53    2
    55    53    52    1
    56    12    11    2
    57    30    29    1
    58    48    50   ar
    59    48    49   ar
    60    43    42    1
    61    43    44    1
    62    51    52    1
    63    51    44   am
    64    42    33   am
    65    29    26    1
    66    44    45    2
    67    35    36    1
    68    35    32    1
    69    36    37    1
    70    31    32    1
    71    31    27   am
    72    33    32    1
    73    33    34    2
    74    37    38    1
    75    26    27    1
    76    26    25    1
    77    27    28    2
    78    38    39    2
    79    39    41    1
    80    39    40    1
