@<TRIPOS>MOLECULE
tmp/1vhtA00.pdb
 148 142 0 0 0
SMALL
GASTEIGER

@<TRIPOS>ATOM
      1  N         45.3020   23.4380   59.0240 N.3    12  ILE12      -0.1231
      2  CA        46.0180   24.5610   59.6270 C.3    12  ILE12       0.1692
      3  C         45.1490   25.8080   59.6640 C.2    12  ILE12       0.2593
      4  O         44.4290   26.1810   58.7420 O.2    12  ILE12      -0.2718
      5  CB        47.3410   24.8570   58.8810 C.3    12  ILE12       0.0266
      6  CG1       48.2380   25.7880   59.6780 C.3    12  ILE12       0.0019
      7  CG2       47.0980   25.3480   57.4680 C.3    12  ILE12       0.0020
      8  CD1       49.6540   25.8150   59.0510 C.3    12  ILE12       0.0001
      9  N         45.1900   26.4420   60.8480 N.am   13  GLY13      -0.1942
     10  CA        44.5000   27.6590   61.1440 C.3    13  GLY13       0.2014
     11  C         43.0120   27.5070   61.3500 C.2    13  GLY13       0.2640
     12  O         42.3280   28.5210   61.4470 O.2    13  GLY13      -0.2714
     13  N         42.5170   26.2860   61.5520 N.am   14  SER14      -0.1935
     14  CA        41.0690   26.1170   61.7030 C.3    14  SER14       0.2055
     15  C         40.5900   26.3560   63.1330 C.2    14  SER14       0.2644
     16  O         39.4090   26.7150   63.2660 O.2    14  SER14      -0.2714
     17  CB        40.6270   24.7310   61.1930 C.3    14  SER14       0.2130
     18  OG        41.3220   23.7070   61.8780 O.3    14  SER14      -0.2179
     19  N         41.4440   26.1500   64.1080 N.am   15  GLY15      -0.1939
     20  CA        41.0510   26.3840   65.4950 C.3    15  GLY15       0.2014
     21  C         40.9140   25.1220   66.3330 C.2    15  GLY15       0.2639
     22  O         40.0490   25.0750   67.2330 O.2    15  GLY15      -0.2714
     23  N         41.6580   24.0860   65.9850 N.am   16  LYS16      -0.1963
     24  CA        41.6310   22.8390   66.7370 C.3    16  LYS16       0.1728
     25  C         41.8340   23.0840   68.2310 C.2    16  LYS16       0.2617
     26  O         41.0060   22.6200   69.0230 O.2    16  LYS16      -0.2715
     27  CB        42.7410   21.8770   66.2910 C.3    16  LYS16       0.0311
     28  CG        42.4460   21.2680   64.9220 C.3    16  LYS16       0.0038
     29  CD        43.5790   20.3640   64.4910 C.3    16  LYS16       0.0206
     30  CE        44.8110   21.1750   64.1630 C.3    16  LYS16       0.1093
     31  NZ        44.6640   22.0930   63.0100 N.3    16  LYS16      -0.1314
     32  N         42.8630   23.8330   68.6280 N.am   17  SER17      -0.1936
     33  CA        43.0950   24.0330   70.0700 C.3    17  SER17       0.2055
     34  C         42.0360   24.9160   70.6990 C.2    17  SER17       0.2643
     35  O         41.6520   24.7180   71.8640 O.2    17  SER17      -0.2714
     36  CB        44.5070   24.6360   70.2320 C.3    17  SER17       0.2130
     37  OG        45.4160   23.5940   69.8680 O.3    17  SER17      -0.2179
     38  N         41.5480   25.8900   69.9520 N.am   18  THR18      -0.1950
     39  CA        40.4690   26.7740   70.4120 C.3    18  THR18       0.1897
     40  C         39.2430   25.9530   70.7810 C.2    18  THR18       0.2313
     41  O         38.6890   26.1220   71.8700 O.2    18  THR18      -0.2863
     42  CB        40.1580   27.7990   69.3060 C.3    18  THR18       0.1794
     43  OG1       41.3730   28.5660   69.1350 O.3    18  THR18      -0.2208
     44  CG2       39.0680   28.7680   69.7490 C.3    18  THR18       0.0378
     45  N         45.8690   16.3550   64.4480 N.3   114  PRO114     -0.2116
     46  CA        45.9750   17.0750   63.1930 C.3   114  PRO114      0.1372
     47  C         46.0390   16.1570   61.9870 C.2   114  PRO114      0.2244
     48  O         45.4560   16.5380   60.9480 O.2   114  PRO114     -0.2868
     49  CB        47.3150   17.8140   63.3670 C.3   114  PRO114      0.0268
     50  CG        47.3930   18.0630   64.8560 C.3   114  PRO114      0.0207
     51  CD        46.8590   16.7530   65.4620 C.3   114  PRO114      0.0892
     52  N         44.3360   33.5980   58.9900 N.3   141  ARG141     -0.1231
     53  CA        44.7080   33.4070   60.3980 C.3   141  ARG141      0.1694
     54  C         46.1230   32.9240   60.5700 C.2   141  ARG141      0.2592
     55  O         46.8090   33.3620   61.5180 O.2   141  ARG141     -0.2718
     56  CB        43.6920   32.4740   61.0720 C.3   141  ARG141      0.0321
     57  CG        42.3160   33.1000   61.1860 C.3   141  ARG141      0.0489
     58  CD        41.3250   32.2740   62.0010 C.3   141  ARG141      0.2205
     59  NE        39.9860   32.8590   61.9310 N.pl3 141  ARG141     -0.0865
     60  CZ        38.8660   32.1890   62.2530 C.cat 141  ARG141      0.5346
     61  NH1       38.9560   30.9310   62.6530 N.pl3 141  ARG141      0.1354
     62  NH2       37.6890   32.7810   62.1430 N.pl3 141  ARG141      0.1354
     63  N         46.6120   32.0390   59.7150 N.am  142  THR142     -0.1953
     64  CA        47.9780   31.5330   59.8430 C.3   142  THR142      0.1897
     65  C         48.9790   32.6280   59.4940 C.2   142  THR142      0.2313
     66  O         50.0320   32.7700   60.1210 O.2   142  THR142     -0.2863
     67  CB        48.1880   30.2760   58.9970 C.3   142  THR142      0.1794
     68  OG1       47.1890   29.2960   59.3920 O.3   142  THR142     -0.2208
     69  CG2       49.5680   29.6950   59.2520 C.3   142  THR142      0.0378
     70  N         48.4960   35.8520   59.9150 N.3   144  GLN144     -0.1231
     71  CA        48.5350   36.8000   61.0230 C.3   144  GLN144      0.1698
     72  C         49.3260   36.2410   62.1970 C.2   144  GLN144      0.2592
     73  O         50.1650   36.9250   62.7860 O.2   144  GLN144     -0.2718
     74  CB        47.1170   37.1650   61.4720 C.3   144  GLN144      0.0381
     75  CG        47.1160   38.2600   62.5350 C.3   144  GLN144      0.0905
     76  CD        45.6700   38.6200   62.8330 C.2   144  GLN144      0.2608
     77  OE1       44.8680   37.7640   63.1450 O.2   144  GLN144     -0.2717
     78  NE2       45.3530   39.8920   62.7030 N.am  144  GLN144     -0.0878
     79  N         49.0810   34.9790   62.5370 N.am  145  ARG145     -0.1966
     80  CA        49.7660   34.3500   63.6560 C.3   145  ARG145      0.1729
     81  C         51.2710   34.2780   63.4830 C.2   145  ARG145      0.2616
     82  O         52.0250   34.6990   64.3730 O.2   145  ARG145     -0.2715
     83  CB        49.1940   32.9420   63.8860 C.3   145  ARG145      0.0348
     84  CG        49.7300   32.2450   65.1330 C.3   145  ARG145      0.0492
     85  CD        49.4200   30.7490   65.0650 C.3   145  ARG145      0.2205
     86  NE        49.5840   30.0890   66.3580 N.pl3 145  ARG145     -0.0865
     87  CZ        50.7190   29.5250   66.7710 C.cat 145  ARG145      0.5346
     88  NH1       51.7900   29.5390   65.9850 N.pl3 145  ARG145      0.1354
     89  NH2       50.7840   28.9520   67.9640 N.pl3 145  ARG145      0.1354
     90  N         51.7420   33.7590   62.3550 N.am  146  ASP146     -0.1971
     91  CA        53.1640   33.5920   62.1170 C.3   146  ASP146      0.1709
     92  C         53.8340   34.7030   61.3430 C.2   146  ASP146      0.2293
     93  O         55.0530   34.6310   61.1170 O.2   146  ASP146     -0.2864
     94  CB        53.3790   32.2610   61.3660 C.3   146  ASP146      0.1436
     95  CG        52.8260   31.0730   62.1340 C.2   146  ASP146      0.3671
     96  OD1       52.6690   31.1790   63.3680 O.co2 146  ASP146     -0.2456
     97  OD2       52.5570   30.0320   61.4990 O.co2 146  ASP146     -0.2456
     98  N         53.3500   30.8870   51.5880 N.3   152  HIS152     -0.1241
     99  CA        53.8890   29.9360   52.5500 C.3   152  HIS152      0.1621
    100  C         52.7660   29.0600   53.1280 C.2   152  HIS152      0.2264
    101  O         52.9250   27.8460   53.1870 O.2   152  HIS152     -0.2867
    102  CB        54.6320   30.6510   53.6730 C.3   152  HIS152      0.0745
    103  CG        55.3190   29.7900   54.6730 C.ar  152  HIS152      0.0817
    104  ND1       56.5360   29.1940   54.4420 N.ar  152  HIS152     -0.2268
    105  CD2       54.9600   29.4240   55.9320 C.ar  152  HIS152      0.1154
    106  CE1       56.9020   28.4980   55.5020 C.ar  152  HIS152      0.1986
    107  NE2       55.9600   28.6180   56.4260 N.ar  152  HIS152     -0.2212
    108  N         51.4550   24.7280   52.7200 N.3   156  ILE156     -0.1245
    109  CA        51.0200   23.8280   53.7790 C.3   156  ILE156      0.1561
    110  C         49.6160   23.3130   53.4610 C.2   156  ILE156      0.2260
    111  O         49.3620   22.1130   53.6100 O.2   156  ILE156     -0.2867
    112  CB        51.0190   24.5200   55.1590 C.3   156  ILE156      0.0252
    113  CG1       52.4440   24.9720   55.5230 C.3   156  ILE156      0.0019
    114  CG2       50.4770   23.6070   56.2440 C.3   156  ILE156      0.0019
    115  CD1       52.4820   25.9750   56.6640 C.3   156  ILE156      0.0001
    116  N         48.4010   19.1990   53.1320 N.3   160  GLN160     -0.1245
    117  CA        47.4520   18.5920   54.0510 C.3   160  GLN160      0.1566
    118  C         46.2600   18.0140   53.2830 C.2   160  GLN160      0.2260
    119  O         46.0620   18.3430   52.1140 O.2   160  GLN160     -0.2867
    120  CB        46.8820   19.7010   54.9820 C.3   160  GLN160      0.0367
    121  CG        47.9840   20.2180   55.9030 C.3   160  GLN160      0.0905
    122  CD        47.4580   21.0510   57.0530 C.2   160  GLN160      0.2608
    123  OE1       46.4210   21.6960   56.9820 O.2   160  GLN160     -0.2717
    124  NE2       48.2160   21.0400   58.1500 N.am  160  GLN160     -0.0878
    125  N         34.0640   27.4910   62.5030 N.3   176  ASN176     -0.1240
    126  CA        34.8490   28.4290   63.3040 C.3   176  ASN176      0.1653
    127  C         35.2130   29.6260   62.4130 C.2   176  ASN176      0.2266
    128  O         36.2680   30.2100   62.5350 O.2   176  ASN176     -0.2867
    129  CB        36.0850   27.8140   63.9230 C.3   176  ASN176      0.1155
    130  CG        36.8030   28.6830   64.9270 C.2   176  ASN176      0.2627
    131  OD1       36.1860   29.4950   65.6410 O.2   176  ASN176     -0.2716
    132  ND2       38.1200   28.5780   64.9920 N.am  176  ASN176     -0.0877
    133  N         33.2370   32.2530   62.0990 N.3   178  GLY178     -0.1210
    134  CA        32.7910   33.4080   62.8550 C.3   178  GLY178      0.1956
    135  C         33.8480   33.9100   63.8200 C.2   178  GLY178      0.2612
    136  O         35.0330   33.5990   63.7250 O.2   178  GLY178     -0.2717
    137  N         33.4010   34.6910   64.7990 N.am  179  ALA179     -0.1966
    138  CA        34.3120   35.2480   65.7970 C.3   179  ALA179      0.1713
    139  C         34.5950   34.2330   66.8720 C.2   179  ALA179      0.2458
    140  O         33.8960   33.2150   67.0310 O.2   179  ALA179     -0.2730
    141  CB        33.7150   36.5260   66.3700 C.3   179  ALA179      0.0333
    142  N         35.5280   34.5200   67.7740 N.am  180  PRO180     -0.2727
    143  CA        35.8770   33.6030   68.8320 C.3   180  PRO180      0.1402
    144  C         34.7760   33.2110   69.7930 C.2   180  PRO180      0.2269
    145  O         35.0860   32.4900   70.7690 O.2   180  PRO180     -0.2865
    146  CB        37.0440   34.2870   69.5400 C.3   180  PRO180      0.0296
    147  CG        37.5770   35.2910   68.5870 C.3   180  PRO180      0.0237
    148  CD        36.4280   35.7020   67.7030 C.3   180  PRO180      0.0939
@<TRIPOS>BOND
     1    98    99    1
     2   119   118    2
     3    99   100    1
     4    99   102    1
     5   108   109    1
     6   100   101    2
     7   116   117    1
     8   118   117    1
     9   110   111    2
    10   110   109    1
    11   102   103    1
    12   109   112    1
    13   117   120    1
    14   104   103   ar
    15   104   106   ar
    16   103   105   ar
    17   120   121    1
    18   112   113    1
    19   112   114    1
    20   106   107   ar
    21   113   115    1
    22   121   122    1
    23   105   107   ar
    24   123   122    2
    25   122   124   am
    26     7     5    1
    27     4     3    2
    28     5     2    1
    29     5     6    1
    30    52    53    1
    31    67    69    1
    32    67    68    1
    33    67    64    1
    34     1     2    1
    35     8     6    1
    36    65    64    1
    37    65    66    2
    38     2     3    1
    39     3     9   am
    40    63    64    1
    41    63    54   am
    42    70    71    1
    43    53    54    1
    44    53    56    1
    45    54    55    2
    46     9    10    1
    47    48    47    2
    48    71    74    1
    49    71    72    1
    50    56    57    1
    51    93    92    2
    52    10    11    1
    53    57    58    1
    54    17    14    1
    55    17    18    1
    56    92    91    1
    57    11    12    2
    58    11    13   am
    59    94    91    1
    60    94    95    1
    61    74    75    1
    62    97    95   ar
    63    13    14    1
    64    14    15    1
    65    59    58    1
    66    59    60    2
    67    47    46    1
    68   133   134    1
    69    91    90    1
    70    95    96   ar
    71    62    60    1
    72    72    79   am
    73    72    73    2
    74    60    61    1
    75    90    81   am
    76   127   128    2
    77   127   126    1
    78   125   126    1
    79    75    76    1
    80    79    80    1
    81    78    76   am
    82    76    77    2
    83   134   135    1
    84    31    30    1
    85    15    16    2
    86    15    19   am
    87    46    49    1
    88    46    45    1
    89   126   129    1
    90    49    50    1
    91    81    80    1
    92    81    82    2
    93    80    83    1
    94   136   135    2
    95   135   137   am
    96    83    84    1
    97   129   130    1
    98    19    20    1
    99    30    29    1
   100    45    51    1
   101    29    28    1
   102   137   138    1
   103    50    51    1
   104    28    27    1
   105   130   132   am
   106   130   131    2
   107    85    84    1
   108    85    86    1
   109    20    21    1
   110   138   141    1
   111   138   139    1
   112    23    21   am
   113    23    24    1
   114    88    87    1
   115    27    24    1
   116    21    22    2
   117    86    87    2
   118    24    25    1
   119    87    89    1
   120   139   140    2
   121   139   142   am
   122   148   142    1
   123   148   147    1
   124   142   143    1
   125    25    32   am
   126    25    26    2
   127   147   146    1
   128    32    33    1
   129   143   146    1
   130   143   144    1
   131    43    42    1
   132    42    44    1
   133    42    39    1
   134   144   145    2
   135    37    36    1
   136    38    39    1
   137    38    34   am
   138    33    36    1
   139    33    34    1
   140    39    40    1
   141    34    35    2
   142    40    41    2
