@<TRIPOS>MOLECULE
tmp/1vhwE00.pdb
 135 128 0 0 0
SMALL
GASTEIGER

@<TRIPOS>ATOM
      1  N        -13.8630   21.4420   94.3360 N.3    19  GLY19      -0.1225
      2  CA       -13.5930   21.9210   92.9700 C.3    19  GLY19       0.1811
      3  C        -13.5760   23.4460   92.9010 C.2    19  GLY19       0.2280
      4  O        -12.8210   24.0390   92.1200 O.2    19  GLY19      -0.2866
      5  N         -9.5790   22.4960   92.9590 N.3    61  HIS61      -0.1226
      6  CA        -8.9970   21.6880   91.8950 C.3    61  HIS61       0.1752
      7  C         -9.6450   21.9410   90.5380 C.2    61  HIS61       0.2597
      8  O         -9.2200   21.3350   89.5300 O.2    61  HIS61      -0.2718
      9  CB        -8.9970   20.1940   92.2160 C.3    61  HIS61       0.0759
     10  CG       -10.3030   19.5420   92.4710 C.ar   61  HIS61       0.0818
     11  ND1      -11.4100   19.6520   91.6630 N.ar   61  HIS61      -0.2268
     12  CD2      -10.6550   18.6910   93.4780 C.ar   61  HIS61       0.1154
     13  CE1      -12.4070   18.9470   92.1910 C.ar   61  HIS61       0.1986
     14  NE2      -11.9750   18.3330   93.2780 N.ar   61  HIS61      -0.2212
     15  N        -10.6770   22.7920   90.4860 N.am   62  GLY62      -0.1942
     16  CA       -11.3120   23.0440   89.1720 C.3    62  GLY62       0.2014
     17  C        -12.2920   21.9130   88.8400 C.2    62  GLY62       0.2638
     18  O        -12.5370   21.0470   89.6820 O.2    62  GLY62      -0.2714
     19  N        -12.8680   21.9680   87.6440 N.am   63  MET63      -0.1976
     20  CA       -13.8320   20.9150   87.2700 C.3    63  MET63       0.1605
     21  C        -13.2750   19.9910   86.1910 C.2    63  MET63       0.2287
     22  O        -12.7200   20.4390   85.1930 O.2    63  MET63      -0.2864
     23  CB       -15.1350   21.5410   86.7490 C.3    63  MET63       0.0413
     24  CG       -15.8050   22.4470   87.7770 C.3    63  MET63       0.0598
     25  SD       -17.4650   22.9910   87.2870 S.3    63  MET63      -0.1393
     26  CE       -17.0750   24.0010   85.8580 C.3    63  MET63       0.0692
     27  N        -10.2850   14.9000   98.3370 N.3    86  ARG86      -0.1245
     28  CA       -11.2750   15.7110   97.5870 C.3    86  ARG86       0.1563
     29  C        -12.5310   15.7800   98.4790 C.2    86  ARG86       0.2260
     30  O        -12.9350   14.7520   99.0150 O.2    86  ARG86      -0.2867
     31  CB       -11.6320   15.0650   96.2530 C.3    86  ARG86       0.0307
     32  CG       -13.0180   15.4450   95.7240 C.3    86  ARG86       0.0489
     33  CD       -13.1600   15.1000   94.2290 C.3    86  ARG86       0.2205
     34  NE       -14.6150   15.1180   93.8870 N.pl3  86  ARG86      -0.0865
     35  CZ       -15.3000   16.2380   93.7910 C.cat  86  ARG86       0.5346
     36  NH1      -14.7160   17.4200   93.9840 N.pl3  86  ARG86       0.1354
     37  NH2      -16.6130   16.1890   93.5530 N.pl3  86  ARG86       0.1354
     38  N        -19.1670   17.6340   96.0390 N.3    89  SER89      -0.1202
     39  CA       -20.5930   17.4020   95.9100 C.3    89  SER89       0.2020
     40  C        -20.7890   16.4050   94.7680 C.2    89  SER89       0.2619
     41  O        -19.9290   16.3130   93.8850 O.2    89  SER89      -0.2717
     42  CB       -21.3510   18.6910   95.5710 C.3    89  SER89       0.2103
     43  OG       -20.8870   19.1970   94.3330 O.3    89  SER89      -0.2182
     44  N        -21.9410   15.7340   94.7990 N.am   90  CYS90      -0.1955
     45  CA       -22.1950   14.7570   93.7350 C.3    90  CYS90       0.1843
     46  C        -23.6990   14.5400   93.5660 C.2    90  CYS90       0.2626
     47  O        -24.4630   15.0010   94.4140 O.2    90  CYS90      -0.2714
     48  CB       -21.5250   13.4300   94.0890 C.3    90  CYS90       0.0997
     49  SG       -22.2790   12.5160   95.4610 S.3    90  CYS90      -0.0797
     50  N        -24.0510   13.9390   92.4430 N.am   91  GLY91      -0.1954
     51  CA       -25.4810   13.6460   92.1870 C.3    91  GLY91       0.1869
     52  C        -25.7170   12.1570   92.3960 C.2    91  GLY91       0.2309
     53  O        -24.9220   11.3330   91.9460 O.2    91  GLY91      -0.2863
     54  N        -17.6030   11.6110   85.7740 N.3   155  ALA155     -0.1245
     55  CA       -18.0140   11.8960   84.4250 C.3   155  ALA155      0.1562
     56  C        -17.1720   12.8910   83.6520 C.2   155  ALA155      0.2260
     57  O        -16.6730   13.8650   84.2130 O.2   155  ALA155     -0.2867
     58  CB       -19.4510   12.5160   84.4790 C.3   155  ALA155      0.0290
     59  N        -20.6770   16.7430   81.8730 N.3   158  PHE158     -0.1241
     60  CA       -21.7310   17.1090   82.8250 C.3   158  PHE158      0.1605
     61  C        -23.0640   17.0790   82.0740 C.2   158  PHE158      0.2264
     62  O        -24.0780   16.5650   82.5780 O.2   158  PHE158     -0.2867
     63  CB       -21.4460   18.5110   83.3840 C.3   158  PHE158      0.0534
     64  CG       -22.4650   18.9740   84.3930 C.ar  158  PHE158     -0.0203
     65  CD1      -23.5810   19.6920   83.9680 C.ar  158  PHE158     -0.0042
     66  CD2      -22.3080   18.6970   85.7310 C.ar  158  PHE158     -0.0042
     67  CE1      -24.5170   20.1310   84.8860 C.ar  158  PHE158     -0.0003
     68  CE2      -23.2500   19.1350   86.6510 C.ar  158  PHE158     -0.0003
     69  CZ       -24.3580   19.8400   86.2220 C.ar  158  PHE158     -0.0000
     70  N        -26.9340    6.7410   83.2600 N.3   166  PHE166     -0.1241
     71  CA       -27.2690    6.8440   84.6750 C.3   166  PHE166      0.1605
     72  C        -27.9630    5.5890   85.1720 C.2   166  PHE166      0.2264
     73  O        -27.8350    5.2080   86.3390 O.2   166  PHE166     -0.2867
     74  CB       -28.1180    8.0830   84.9500 C.3   166  PHE166      0.0534
     75  CG       -27.4200    9.3780   84.6650 C.ar  166  PHE166     -0.0203
     76  CD1      -28.0320   10.3540   83.9040 C.ar  166  PHE166     -0.0042
     77  CD2      -26.1570    9.6520   85.1660 C.ar  166  PHE166     -0.0042
     78  CE1      -27.4120   11.5600   83.6410 C.ar  166  PHE166     -0.0003
     79  CE2      -25.5230   10.8500   84.9090 C.ar  166  PHE166     -0.0003
     80  CZ       -26.1480   11.8200   84.1390 C.ar  166  PHE166     -0.0000
     81  N        -22.3080   10.7110   91.4100 N.3   177  VAL177     -0.1231
     82  CA       -21.6860   11.1480   90.1650 C.3   177  VAL177      0.1692
     83  C        -21.0030   12.4930   90.3880 C.2   177  VAL177      0.2592
     84  O        -21.5990   13.4580   90.8560 O.2   177  VAL177     -0.2718
     85  CB       -22.7450   11.3430   89.0500 C.3   177  VAL177      0.0266
     86  CG1      -22.0900   11.8240   87.7670 C.3   177  VAL177      0.0020
     87  CG2      -23.4570   10.0120   88.7750 C.3   177  VAL177      0.0020
     88  N        -19.7010   12.5220   90.0880 N.am  178  GLU178     -0.1966
     89  CA       -18.9220   13.7630   90.1880 C.3   178  GLU178      0.1733
     90  C        -18.0080   13.8010   88.9700 C.2   178  GLU178      0.2616
     91  O        -18.4110   13.1980   87.9630 O.2   178  GLU178     -0.2715
     92  CB       -18.2660   13.9840   91.5290 C.3   178  GLU178      0.0429
     93  CG       -17.5700   12.7870   92.1350 C.3   178  GLU178      0.1163
     94  CD       -16.2410   12.4820   91.4590 C.2   178  GLU178      0.3649
     95  OE1      -16.2290   11.5820   90.6080 O.co2 178  GLU178     -0.2457
     96  OE2      -15.2440   13.1420   91.8070 O.co2 178  GLU178     -0.2457
     97  N        -16.8870   14.5380   88.9310 N.am  179  MET179     -0.1963
     98  CA       -16.1230   14.5770   87.6680 C.3   179  MET179      0.1736
     99  C        -14.6220   14.5050   87.8940 C.2   179  MET179      0.2616
    100  O        -13.8700   14.9910   87.0250 O.2   179  MET179     -0.2715
    101  CB       -16.4320   15.9120   86.9240 C.3   179  MET179      0.0427
    102  CG       -17.8950   16.0110   86.4900 C.3   179  MET179      0.0599
    103  SD       -18.3070   17.5170   85.6050 S.3   179  MET179     -0.1393
    104  CE       -17.2060   17.3790   84.1880 C.3   179  MET179      0.0692
    105  N        -14.1840   14.0220   89.0580 N.am  180  GLU180     -0.1977
    106  CA       -12.7550   14.0870   89.3550 C.3   180  GLU180      0.1602
    107  C        -12.1100   12.9260   90.0480 C.2   180  GLU180      0.2287
    108  O        -10.9040   12.6880   89.8140 O.2   180  GLU180     -0.2864
    109  CB       -12.5730   15.3230   90.3180 C.3   180  GLU180      0.0415
    110  CG       -12.8330   16.6780   89.7320 C.3   180  GLU180      0.1163
    111  CD       -14.2810   17.1280   89.7360 C.2   180  GLU180      0.3649
    112  OE1      -14.6190   18.0260   88.9270 O.co2 180  GLU180     -0.2457
    113  OE2      -15.1480   16.5670   90.4430 O.co2 180  GLU180     -0.2457
    114  N        -25.8650   16.3110   96.6710 N.3   202  SER202     -0.1202
    115  CA       -26.5970   17.5810   96.5940 C.3   202  SER202      0.2020
    116  C        -27.8600   17.4720   95.7770 C.2   202  SER202      0.2618
    117  O        -28.7810   18.2820   95.9580 O.2   202  SER202     -0.2717
    118  CB       -25.6620   18.6660   96.0460 C.3   202  SER202      0.2103
    119  OG       -24.9790   18.2190   94.8890 O.3   202  SER202     -0.2182
    120  N        -27.9390   16.4690   94.9100 N.am  203  ASP203     -0.1973
    121  CA       -29.1180   16.3030   94.0660 C.3   203  ASP203      0.1709
    122  C        -29.3040   14.8360   93.6920 C.2   203  ASP203      0.2293
    123  O        -28.3770   14.0360   93.8700 O.2   203  ASP203     -0.2864
    124  CB       -28.9480   17.1310   92.7850 C.3   203  ASP203      0.1436
    125  CG       -30.2310   17.3620   92.0200 C.2   203  ASP203      0.3671
    126  OD1      -31.3120   16.9820   92.4410 O.co2 203  ASP203     -0.2456
    127  OD2      -30.1920   18.0670   91.0090 O.co2 203  ASP203     -0.2456
    128  N        -30.2110   12.5890   90.6540 N.3   205  ILE205     -0.1245
    129  CA       -30.3310   12.5730   89.2070 C.3   205  ILE205      0.1561
    130  C        -31.5420   11.8090   88.7110 C.2   205  ILE205      0.2260
    131  O        -32.1440   12.2010   87.7000 O.2   205  ILE205     -0.2867
    132  CB       -29.0300   12.0180   88.5880 C.3   205  ILE205      0.0252
    133  CG1      -27.8660   12.9690   88.9310 C.3   205  ILE205      0.0019
    134  CG2      -29.1460   11.8380   87.0870 C.3   205  ILE205      0.0019
    135  CD1      -26.5130   12.3450   88.5930 C.3   205  ILE205      0.0001
@<TRIPOS>BOND
     1    59    60    1
     2    61    62    2
     3    61    60    1
     4    60    63    1
     5    70    71    1
     6    63    64    1
     7    78    76   ar
     8    78    80   ar
     9    56    57    2
    10    56    55    1
    11    76    75   ar
    12    65    64   ar
    13    65    67   ar
    14    80    79   ar
    15   104   103    1
    16    64    66   ar
    17    55    58    1
    18    55    54    1
    19    75    74    1
    20    75    77   ar
    21    71    74    1
    22    71    72    1
    23    67    69   ar
    24    79    77   ar
    25    72    73    2
    26    22    21    2
    27   103   102    1
    28    66    68   ar
    29    26    25    1
    30    21    20    1
    31    69    68   ar
    32   102   101    1
    33    23    20    1
    34    23    24    1
    35   101    98    1
    36   100    99    2
    37   134   132    1
    38    20    19    1
    39    25    24    1
    40    19    17   am
    41    98    99    1
    42    98    97    1
    43   131   130    2
    44    86    85    1
    45    99   105   am
    46    91    90    2
    47   132   133    1
    48   132   129    1
    49   135   133    1
    50   130   129    1
    51    87    85    1
    52    17    16    1
    53    17    18    2
    54   112   111   ar
    55    97    90   am
    56    90    89    1
    57    85    82    1
    58   105   106    1
    59    16    15    1
    60   129   128    1
    61   106   107    1
    62   106   109    1
    63     8     7    2
    64   110   111    1
    65   110   109    1
    66   111   113   ar
    67   108   107    2
    68    88    89    1
    69    88    83   am
    70    82    83    1
    71    82    81    1
    72    89    92    1
    73    83    84    2
    74    15     7   am
    75     7     6    1
    76    95    94   ar
    77   127   125   ar
    78    94    96   ar
    79    94    93    1
    80    92    93    1
    81    11    13   ar
    82    11    10   ar
    83     6     9    1
    84     6     5    1
    85    53    52    2
    86   125   126   ar
    87   125   124    1
    88     4     3    2
    89    51    52    1
    90    51    50    1
    91    13    14   ar
    92     9    10    1
    93    50    46   am
    94    10    12   ar
    95   124   121    1
    96     3     2    1
    97     2     1    1
    98    14    12   ar
    99    37    35    1
   100    46    45    1
   101    46    47    2
   102   122   123    2
   103   122   121    1
   104    45    48    1
   105    45    44    1
   106    35    34    2
   107    35    36    1
   108    41    40    2
   109    34    33    1
   110   121   120    1
   111    48    49    1
   112    33    32    1
   113    43    42    1
   114    40    44   am
   115    40    39    1
   116   119   118    1
   117   120   116   am
   118    42    39    1
   119    32    31    1
   120   116   117    2
   121   116   115    1
   122    39    38    1
   123   118   115    1
   124    31    28    1
   125   115   114    1
   126    28    27    1
   127    28    29    1
   128    29    30    2
