@<TRIPOS>MOLECULE
tmp/1vhzB00.pdb
 94 91 0 0 0
SMALL
GASTEIGER

@<TRIPOS>ATOM
      1  N         49.1870   16.9480  158.2380 N.3    19  ARG19      -0.1231
      2  CA        49.0140   18.2160  157.5230 C.3    19  ARG19       0.1694
      3  C         47.5720   18.6870  157.5550 C.2    19  ARG19       0.2591
      4  O         47.2960   19.8550  157.8560 O.2    19  ARG19      -0.2718
      5  CB        49.5530   18.1160  156.0980 C.3    19  ARG19       0.0321
      6  CG        49.8000   19.4750  155.4460 C.3    19  ARG19       0.0489
      7  CD        50.8210   19.3630  154.3160 C.3    19  ARG19       0.2205
      8  NE        50.4580   18.2960  153.3880 N.pl3  19  ARG19      -0.0865
      9  CZ        49.4350   18.3520  152.5430 C.cat  19  ARG19       0.5346
     10  NH1       48.6540   19.4250  152.4880 N.pl3  19  ARG19       0.1354
     11  NH2       49.1920   17.3110  151.7530 N.pl3  19  ARG19       0.1354
     12  N         46.6190   17.8040  157.2750 N.am   20  LEU20      -0.1980
     13  CA        45.2150   18.1640  157.2530 C.3    20  LEU20       0.1596
     14  C         44.3870   17.6900  158.4260 C.2    20  LEU20       0.2287
     15  O         43.1710   17.9450  158.4610 O.2    20  LEU20      -0.2864
     16  CB        44.5960   17.5930  155.9460 C.3    20  LEU20       0.0297
     17  CG        45.5020   17.6790  154.7090 C.3    20  LEU20       0.0022
     18  CD1       44.9050   16.9290  153.5360 C.3    20  LEU20       0.0001
     19  CD2       45.7820   19.1290  154.3360 C.3    20  LEU20       0.0001
     20  N         35.0070   13.1390  140.0050 N.3    64  GLU64      -0.1231
     21  CA        36.2040   13.6230  140.7110 C.3    64  GLU64       0.1699
     22  C         36.8710   12.4860  141.4530 C.2    64  GLU64       0.2592
     23  O         36.1920   11.6270  142.0230 O.2    64  GLU64      -0.2718
     24  CB        35.7800   14.7390  141.6610 C.3    64  GLU64       0.0402
     25  CG        36.8870   15.3970  142.4630 C.3    64  GLU64       0.1161
     26  CD        36.4410   16.7150  143.0780 C.2    64  GLU64       0.3649
     27  OE1       37.3050   17.5540  143.4040 O.co2  64  GLU64      -0.2457
     28  OE2       35.2240   16.9380  143.2400 O.co2  64  GLU64      -0.2457
     29  N         38.1990   12.4560  141.4490 N.am   65  TYR65      -0.1962
     30  CA        38.9140   11.3920  142.1130 C.3    65  TYR65       0.1771
     31  C         38.8370   11.5340  143.6350 C.2    65  TYR65       0.2619
     32  O         38.8910   12.6340  144.1730 O.2    65  TYR65      -0.2715
     33  CB        40.3500   11.2630  141.6320 C.3    65  TYR65       0.0574
     34  CG        41.1400   10.1260  142.2700 C.ar   65  TYR65      -0.0198
     35  CD1       42.0030   10.3670  143.3270 C.ar   65  TYR65      -0.0009
     36  CD2       41.0180    8.8220  141.8150 C.ar   65  TYR65      -0.0009
     37  CE1       42.7310    9.3470  143.9160 C.ar   65  TYR65       0.0417
     38  CE2       41.7370    7.7940  142.3850 C.ar   65  TYR65       0.0417
     39  CZ        42.5950    8.0650  143.4410 C.ar   65  TYR65       0.1957
     40  OH        43.3320    7.0480  143.9960 O.3    65  TYR65      -0.2866
     41  N         38.6540   10.3980  144.2920 N.am   66  ALA66      -0.1963
     42  CA        38.6040   10.3270  145.7550 C.3    66  ALA66       0.1728
     43  C         39.6640    9.3270  146.2150 C.2    66  ALA66       0.2616
     44  O         39.5300    8.1320  145.9310 O.2    66  ALA66      -0.2715
     45  CB        37.2110    9.9000  146.1900 C.3    66  ALA66       0.0334
     46  N         40.7250    9.7800  146.8770 N.am   67  VAL67      -0.1977
     47  CA        41.7820    8.8580  147.3010 C.3    67  VAL67       0.1596
     48  C         41.3650    7.9050  148.4020 C.2    67  VAL67       0.2287
     49  O         41.9840    6.8370  148.5700 O.2    67  VAL67      -0.2864
     50  CB        43.0670    9.6070  147.7210 C.3    67  VAL67       0.0276
     51  CG1       42.9050   10.2500  149.0960 C.3    67  VAL67       0.0022
     52  CG2       44.2500    8.6470  147.7500 C.3    67  VAL67       0.0022
     53  N         31.5780   20.3510  145.2240 N.3    78  LYS78      -0.1245
     54  CA        31.7080   20.6630  146.6300 C.3    78  LYS78       0.1561
     55  C         32.9960   21.4570  146.8840 C.2    78  LYS78       0.2260
     56  O         33.9870   21.2700  146.1660 O.2    78  LYS78      -0.2867
     57  CB        31.8380   19.3650  147.4720 C.3    78  LYS78       0.0271
     58  CG        30.6120   18.5010  147.4950 C.3    78  LYS78       0.0035
     59  CD        30.8080   17.1060  148.0470 C.3    78  LYS78       0.0206
     60  CE        29.6480   16.1940  147.6480 C.3    78  LYS78       0.1093
     61  NZ        29.7770   15.6240  146.2590 N.3    78  LYS78      -0.1314
     62  N         34.9980   25.0570  139.3240 N.3    98  GLU98      -0.1245
     63  CA        34.8060   23.6740  138.9370 C.3    98  GLU98       0.1567
     64  C         34.1090   23.3790  137.6320 C.2    98  GLU98       0.2260
     65  O         34.5330   22.4500  136.9250 O.2    98  GLU98      -0.2867
     66  CB        34.0570   22.9440  140.0810 C.3    98  GLU98       0.0388
     67  CG        34.8330   23.0340  141.3930 C.3    98  GLU98       0.1160
     68  CD        34.4410   21.9440  142.3660 C.2    98  GLU98       0.3649
     69  OE1       33.5100   21.1720  142.0400 O.co2  98  GLU98      -0.2457
     70  OE2       35.0650   21.8210  143.4400 O.co2  98  GLU98      -0.2457
     71  N         42.3210   24.6510  142.3570 N.3   139  ASP139     -0.1225
     72  CA        43.6100   23.9780  142.5460 C.3   139  ASP139      0.1805
     73  C         43.5340   22.5060  142.1580 C.2   139  ASP139      0.2598
     74  O         44.3940   21.7020  142.5090 O.2   139  ASP139     -0.2718
     75  CB        44.1130   24.1570  143.9810 C.3   139  ASP139      0.1424
     76  CG        45.5820   23.7730  144.1170 C.2   139  ASP139      0.3668
     77  OD1       45.9490   23.2030  145.1680 O.co2 139  ASP139     -0.2456
     78  OD2       46.3570   24.0120  143.1610 O.co2 139  ASP139     -0.2456
     79  N         42.5220   22.1410  141.3770 N.am  140  GLU140     -0.1966
     80  CA        42.3680   20.7490  140.9620 C.3   140  GLU140      0.1718
     81  C         43.5410   20.3030  140.0970 C.2   140  GLU140      0.2458
     82  O         43.9650   20.9920  139.1780 O.2   140  GLU140     -0.2730
     83  CB        41.0290   20.4950  140.2940 C.3   140  GLU140      0.0428
     84  CG        40.8200   21.0420  138.9060 C.3   140  GLU140      0.1163
     85  CD        40.6050   22.5400  138.8560 C.2   140  GLU140      0.3649
     86  OE1       40.4910   23.0920  137.7400 O.co2 140  GLU140     -0.2457
     87  OE2       40.5670   23.1870  139.9230 O.co2 140  GLU140     -0.2457
     88  N         44.0570   19.1150  140.3850 N.am  141  PRO141     -0.2727
     89  CA        45.1700   18.5300  139.6780 C.3   141  PRO141      0.1402
     90  C         44.8300   18.0350  138.2930 C.2   141  PRO141      0.2269
     91  O         45.7150   17.8540  137.4430 O.2   141  PRO141     -0.2865
     92  CB        45.5820   17.3730  140.5850 C.3   141  PRO141      0.0296
     93  CG        44.3000   16.9500  141.2430 C.3   141  PRO141      0.0237
     94  CD        43.5640   18.2410  141.4940 C.3   141  PRO141      0.0939
@<TRIPOS>BOND
     1    65    64    2
     2    91    90    2
     3    64    63    1
     4    86    85   ar
     5    90    89    1
     6    85    84    1
     7    85    87   ar
     8    84    83    1
     9    63    62    1
    10    63    66    1
    11    82    81    2
    12    89    88    1
    13    89    92    1
    14    20    21    1
    15    66    67    1
    16    81    88   am
    17    81    80    1
    18    83    80    1
    19    88    94    1
    20    92    93    1
    21    21    22    1
    22    21    24    1
    23    80    79    1
    24    93    94    1
    25    79    73   am
    26    67    68    1
    27    29    22   am
    28    29    30    1
    29    22    23    2
    30    33    30    1
    31    33    34    1
    32    24    25    1
    33    36    34   ar
    34    36    38   ar
    35    69    68   ar
    36    30    31    1
    37    73    74    2
    38    73    72    1
    39    34    35   ar
    40    71    72    1
    41    68    70   ar
    42    38    39   ar
    43    25    26    1
    44    72    75    1
    45    26    28   ar
    46    26    27   ar
    47    78    76   ar
    48    35    37   ar
    49    39    37   ar
    50    39    40    1
    51    31    32    2
    52    31    41   am
    53    75    76    1
    54    76    77   ar
    55    41    42    1
    56    53    54    1
    57    42    45    1
    58    42    43    1
    59    44    43    2
    60    56    55    2
    61    43    46   am
    62    61    60    1
    63    54    55    1
    64    54    57    1
    65    46    47    1
    66    47    50    1
    67    47    48    1
    68    57    58    1
    69    58    59    1
    70    60    59    1
    71    50    52    1
    72    50    51    1
    73    48    49    2
    74    11     9    1
    75    10     9    1
    76     9     8    2
    77     8     7    1
    78    18    17    1
    79     7     6    1
    80    19    17    1
    81    17    16    1
    82     6     5    1
    83    16    13    1
    84     5     2    1
    85    13    12    1
    86    13    14    1
    87    12     3   am
    88     2     3    1
    89     2     1    1
    90     3     4    2
    91    14    15    2
