@<TRIPOS>MOLECULE
tmp/1vijA00.pdb
 141 133 0 0 0
SMALL
GASTEIGER

@<TRIPOS>ATOM
      1  N         -6.5390   28.6550   21.4130 N.3     8  ARG8       -0.1301
      2  CA        -6.6650   27.8570   22.6510 C.3     8  ARG8        0.1248
      3  C         -6.8070   28.8350   23.7960 C.3     8  ARG8        0.2009
      4  O         -5.9610   29.7810   23.7970 O.3     8  ARG8       -0.2188
      5  CB        -5.3480   27.0770   22.7590 C.3     8  ARG8        0.0254
      6  CG        -5.1000   26.0960   21.6290 C.3     8  ARG8        0.0485
      7  CD        -4.7650   24.7250   22.1860 C.3     8  ARG8        0.2205
      8  NE        -4.4280   23.7860   21.1370 N.pl3   8  ARG8       -0.0865
      9  CZ        -3.2630   23.6110   20.5350 C.cat   8  ARG8        0.5346
     10  NH1       -2.1800   24.2930   20.8820 N.pl3   8  ARG8        0.1354
     11  NH2       -3.1190   22.6950   19.5640 N.pl3   8  ARG8        0.1354
     12  N         -4.6400   26.4360   30.5710 N.3    23  LEU23      -0.1245
     13  CA        -5.7340   26.3150   29.6010 C.3    23  LEU23       0.1561
     14  C         -7.0700   26.3420   30.3510 C.2    23  LEU23       0.2260
     15  O         -7.2250   25.6000   31.3510 O.2    23  LEU23      -0.2867
     16  CB        -5.5260   25.0230   28.8180 C.3    23  LEU23       0.0270
     17  CG        -6.6470   24.5130   27.9110 C.3    23  LEU23       0.0019
     18  CD1       -6.6150   25.2540   26.6010 C.3    23  LEU23       0.0001
     19  CD2       -6.6930   23.0060   27.7010 C.3    23  LEU23       0.0001
     20  N        -10.5410   25.2060   30.7560 N.3    25  ASP25      -0.1239
     21  CA       -11.2440   24.0540   30.2150 C.3    25  ASP25       0.1674
     22  C        -12.6200   23.8560   30.7260 C.2    25  ASP25       0.2266
     23  O        -12.8020   23.3700   31.8500 O.2    25  ASP25      -0.2867
     24  CB       -10.3430   22.8800   30.6330 C.3    25  ASP25       0.1410
     25  CG       -10.3690   21.8060   29.5990 C.2    25  ASP25       0.3668
     26  OD1      -11.4370   21.6710   28.9800 O.co2  25  ASP25      -0.2456
     27  OD2       -9.3490   21.1000   29.5310 O.co2  25  ASP25      -0.2456
     28  N        -14.3850   21.4620   29.7800 N.3    27  GLY27      -0.1210
     29  CA       -14.6710   20.0270   29.7760 C.3    27  GLY27       0.1956
     30  C        -13.8450   19.1870   30.7070 C.2    27  GLY27       0.2612
     31  O        -13.5500   18.0160   30.4920 O.2    27  GLY27      -0.2717
     32  N        -13.4130   19.7690   31.8000 N.am   28  ALA28      -0.1965
     33  CA       -12.6080   19.3430   32.9030 C.3    28  ALA28       0.1728
     34  C        -13.2530   19.9040   34.1820 C.2    28  ALA28       0.2616
     35  O        -13.5330   21.0950   34.3360 O.2    28  ALA28      -0.2715
     36  CB       -11.1710   19.8220   32.8430 C.3    28  ALA28       0.0334
     37  N        -13.5280   18.9430   35.0520 N.am   29  ASP29      -0.1957
     38  CA       -14.1810   19.1730   36.3200 C.3    29  ASP29       0.1840
     39  C        -13.2020   19.7070   37.3520 C.2    29  ASP29       0.2622
     40  O        -13.6000   20.4570   38.2300 O.2    29  ASP29      -0.2715
     41  CB       -14.8420   17.9000   36.7970 C.3    29  ASP29       0.1450
     42  CG       -15.5420   16.9200   35.8930 C.2    29  ASP29       0.3671
     43  OD1      -15.1790   16.5910   34.7380 O.co2  29  ASP29      -0.2456
     44  OD2      -16.4910   16.2980   36.4120 O.co2  29  ASP29      -0.2456
     45  N        -11.9520   19.2900   37.2710 N.am   30  ASP30      -0.1971
     46  CA       -10.8760   19.7200   38.1290 C.3    30  ASP30       0.1709
     47  C         -9.6590   20.3000   37.3750 C.2    30  ASP30       0.2293
     48  O         -9.4720   20.0980   36.1910 O.2    30  ASP30      -0.2864
     49  CB       -10.2810   18.6030   38.9730 C.3    30  ASP30       0.1436
     50  CG       -11.2620   17.5850   39.4840 C.2    30  ASP30       0.3671
     51  OD1      -12.0950   17.9060   40.3770 O.co2  30  ASP30      -0.2456
     52  OD2      -11.2120   16.4110   39.0020 O.co2  30  ASP30      -0.2456
     53  N         -5.6710   20.4750   36.8330 N.3    32  VAL32      -0.1245
     54  CA        -4.5930   19.4960   36.8110 C.3    32  VAL32       0.1561
     55  C         -3.3820   20.2320   36.2270 C.2    32  VAL32       0.2260
     56  O         -3.4070   20.4920   35.0280 O.2    32  VAL32      -0.2867
     57  CB        -4.9000   18.2340   35.9860 C.3    32  VAL32       0.0252
     58  CG1       -5.5180   18.5940   34.6490 C.3    32  VAL32       0.0019
     59  CG2       -3.6880   17.3510   35.7610 C.3    32  VAL32       0.0019
     60  N         -5.0310   10.7100   44.0590 N.3    45  LYS45      -0.1231
     61  CA        -6.2410   10.2170   43.4470 C.3    45  LYS45       0.1693
     62  C         -5.8550    9.9420   41.9830 C.2    45  LYS45       0.2592
     63  O         -4.7240   10.3420   41.6560 O.2    45  LYS45      -0.2718
     64  CB        -7.4100   11.1500   43.5450 C.3    45  LYS45       0.0285
     65  CG        -7.7180   12.2500   42.5840 C.3    45  LYS45       0.0035
     66  CD        -9.0580   12.9510   42.8620 C.3    45  LYS45       0.0206
     67  CE       -10.0150   12.8440   41.6880 C.3    45  LYS45       0.1093
     68  NZ       -11.1480   13.8010   41.7460 N.3    45  LYS45      -0.1314
     69  N         -6.6550    9.2390   41.1930 N.am   46  MET46      -0.1965
     70  CA        -6.2550    8.9900   39.7930 C.3    46  MET46       0.1736
     71  C         -7.2910    9.6200   38.8640 C.2    46  MET46       0.2616
     72  O         -8.4890    9.5510   39.2000 O.2    46  MET46      -0.2715
     73  CB        -6.0320    7.5160   39.4790 C.3    46  MET46       0.0427
     74  CG        -4.6860    6.9870   40.0090 C.3    46  MET46       0.0599
     75  SD        -3.9610    5.7410   38.9030 S.3    46  MET46      -0.1393
     76  CE        -5.4420    4.8000   38.4610 C.3    46  MET46       0.0692
     77  N         -6.8470   10.2550   37.7710 N.am   47  ILE47      -0.1963
     78  CA        -7.7960   10.8720   36.8430 C.3    47  ILE47       0.1727
     79  C         -7.8520   10.2000   35.4590 C.2    47  ILE47       0.2617
     80  O         -6.8770    9.6940   34.8850 O.2    47  ILE47      -0.2715
     81  CB        -7.6310   12.3990   36.6340 C.3    47  ILE47       0.0290
     82  CG1       -6.1810   12.8270   36.3890 C.3    47  ILE47       0.0022
     83  CG2       -8.2270   13.2400   37.7550 C.3    47  ILE47       0.0023
     84  CD1       -6.0490   13.8230   35.2810 C.3    47  ILE47       0.0001
     85  N         -9.0620   10.3160   34.8990 N.am   48  GLY48      -0.1940
     86  CA        -9.4700    9.8600   33.5950 C.3    48  GLY48       0.2014
     87  C         -9.7440   10.9350   32.5420 C.2    48  GLY48       0.2639
     88  O        -10.4980   11.8870   32.7330 O.2    48  GLY48      -0.2714
     89  N         -9.1010   10.8020   31.3880 N.am   49  GLY49      -0.1939
     90  CA        -9.2630   11.6480   30.2260 C.3    49  GLY49       0.2014
     91  C         -9.3870   10.8310   28.9370 C.2    49  GLY49       0.2639
     92  O         -9.3990    9.6000   29.0000 O.2    49  GLY49      -0.2714
     93  N         -9.4450   11.4930   27.7620 N.am   50  ILE50      -0.1963
     94  CA        -9.5140   10.7280   26.5230 C.3    50  ILE50       0.1727
     95  C         -8.2100    9.9490   26.3930 C.2    50  ILE50       0.2616
     96  O         -8.2640    8.8410   25.8270 O.2    50  ILE50      -0.2715
     97  CB        -9.8220   11.4190   25.2150 C.3    50  ILE50       0.0290
     98  CG1      -11.2340   11.0950   24.7160 C.3    50  ILE50       0.0022
     99  CG2       -8.8600   11.0210   24.0950 C.3    50  ILE50       0.0023
    100  CD1      -12.3340   11.8040   25.4910 C.3    50  ILE50       0.0001
    101  N         -7.0710   10.4540   26.8710 N.am   51  GLY51      -0.1955
    102  CA        -5.9230    9.5420   26.7310 C.3    51  GLY51       0.1869
    103  C         -6.2100    8.1550   27.3370 C.2    51  GLY51       0.2309
    104  O         -6.3940    7.1410   26.6530 O.2    51  GLY51      -0.2863
    105  N         -4.5630   19.4130   41.2060 N.3    76  LEU76      -0.1245
    106  CA        -4.0710   18.0840   40.8810 C.3    76  LEU76       0.1561
    107  C         -2.7190   18.2880   40.1840 C.2    76  LEU76       0.2260
    108  O         -2.6600   19.1150   39.2740 O.2    76  LEU76      -0.2867
    109  CB        -4.9070   17.1550   40.0070 C.3    76  LEU76       0.0270
    110  CG        -6.3630   16.8850   40.4140 C.3    76  LEU76       0.0019
    111  CD1       -7.0690   15.9970   39.4200 C.3    76  LEU76       0.0001
    112  CD2       -6.5040   16.4330   41.8390 C.3    76  LEU76       0.0001
    113  N          0.8420   15.7930   33.0980 N.3    80  THR80      -0.1204
    114  CA         0.1790   16.5740   32.0810 C.3    80  THR80       0.1979
    115  C          1.0050   17.4550   31.1740 C.2    80  THR80       0.2460
    116  O          1.9770   18.1250   31.5400 O.2    80  THR80      -0.2732
    117  CB        -0.8290   17.4170   32.9300 C.3    80  THR80       0.1783
    118  OG1       -1.8460   18.0100   32.1240 O.3    80  THR80      -0.2211
    119  CG2       -0.0410   18.3980   33.7740 C.3    80  THR80       0.0376
    120  N          0.6360   17.5970   29.8830 N.am   81  PRO81      -0.2717
    121  CA         1.3010   18.4410   28.9050 C.3    81  PRO81       0.1535
    122  C          1.0040   19.9380   29.0210 C.2    81  PRO81       0.2598
    123  O          1.9330   20.6790   28.7490 O.2    81  PRO81      -0.2715
    124  CB         0.7790   17.9900   27.5410 C.3    81  PRO81       0.0310
    125  CG        -0.1360   16.8490   27.8060 C.3    81  PRO81       0.0237
    126  CD        -0.5220   16.8510   29.2680 C.3    81  PRO81       0.0939
    127  N         -0.2260   20.3150   29.3390 N.am   82  VAL82      -0.1978
    128  CA        -0.6930   21.6800   29.5010 C.3    82  VAL82       0.1596
    129  C         -1.3620   21.8880   30.8650 C.2    82  VAL82       0.2287
    130  O         -2.0780   20.9660   31.2770 O.2    82  VAL82      -0.2864
    131  CB        -1.7310   22.0500   28.4170 C.3    82  VAL82       0.0276
    132  CG1       -1.2210   21.7580   27.0120 C.3    82  VAL82       0.0022
    133  CG2       -3.0730   21.3820   28.6010 C.3    82  VAL82       0.0022
    134  N         -4.2460   22.6270   33.2100 N.3    84  ILE84      -0.1301
    135  CA        -5.6710   22.7270   32.9170 C.3    84  ILE84       0.1246
    136  C         -6.5000   23.3750   34.0060 C.3    84  ILE84       0.2009
    137  O         -6.2020   22.9980   35.1270 O.3    84  ILE84      -0.2188
    138  CB        -6.2260   21.2590   32.8020 C.3    84  ILE84       0.0202
    139  CG1       -5.4620   20.6020   31.6650 C.3    84  ILE84       0.0015
    140  CG2       -7.7020   21.3200   32.5030 C.3    84  ILE84       0.0016
    141  CD1       -5.8340   19.1280   31.4780 C.3    84  ILE84       0.0000
@<TRIPOS>BOND
     1    11     9    1
     2     9    10    1
     3     9     8    2
     4     8     7    1
     5     1     2    1
     6     6     7    1
     7     6     5    1
     8     2     5    1
     9     2     3    1
    10     3     4    1
    11    99    97    1
    12    98    97    1
    13    98   100    1
    14    97    94    1
    15    96    95    2
    16    95    94    1
    17    95   101   am
    18    94    93    1
    19    18    17    1
    20   104   103    2
    21   102   101    1
    22   102   103    1
    23   132   131    1
    24   124   125    1
    25   124   121    1
    26    19    17    1
    27    93    91   am
    28   125   126    1
    29    17    16    1
    30   131   133    1
    31   131   128    1
    32   123   122    2
    33    16    13    1
    34   121   122    1
    35   121   120    1
    36    91    92    2
    37    91    90    1
    38    26    25   ar
    39   122   127   am
    40   126   120    1
    41   127   128    1
    42   128   129    1
    43    27    25   ar
    44    25    24    1
    45    13    14    1
    46    13    12    1
    47    29    28    1
    48    29    30    1
    49   120   115   am
    50    21    24    1
    51    21    22    1
    52    21    20    1
    53    90    89    1
    54    14    15    2
    55    31    30    2
    56    30    32   am
    57    22    23    2
    58   129   130    2
    59   115   116    2
    60   115   114    1
    61    89    87   am
    62   141   139    1
    63   139   138    1
    64    32    33    1
    65   114   117    1
    66   114   113    1
    67   118   117    1
    68   140   138    1
    69    87    88    2
    70    87    86    1
    71   138   135    1
    72    36    33    1
    73    33    34    1
    74   135   134    1
    75   135   136    1
    76   117   119    1
    77    86    85    1
    78   136   137    1
    79    34    35    2
    80    34    37   am
    81    58    57    1
    82    43    42   ar
    83    80    79    2
    84    85    79   am
    85    56    55    2
    86    37    38    1
    87    84    82    1
    88    79    78    1
    89    59    57    1
    90    42    44   ar
    91    42    41    1
    92    57    54    1
    93    48    47    2
    94    55    54    1
    95    38    41    1
    96    38    39    1
    97    82    81    1
    98    81    78    1
    99    81    83    1
   100    54    53    1
   101    78    77    1
   102    45    39   am
   103    45    46    1
   104    39    40    2
   105    47    46    1
   106    77    71   am
   107    46    49    1
   108    76    75    1
   109    71    72    2
   110    71    70    1
   111    75    74    1
   112    49    50    1
   113    52    50   ar
   114   108   107    2
   115   111   110    1
   116    73    70    1
   117    73    74    1
   118    50    51   ar
   119    70    69    1
   120   109   110    1
   121   109   106    1
   122   107   106    1
   123   110   112    1
   124   106   105    1
   125    69    62   am
   126    63    62    2
   127    67    68    1
   128    67    66    1
   129    62    61    1
   130    65    66    1
   131    65    64    1
   132    61    64    1
   133    61    60    1
