@<TRIPOS>MOLECULE
tmp/1vj3A01.pdb
 178 171 0 0 0
SMALL
GASTEIGER

@<TRIPOS>ATOM
      1  N          5.7840    4.0950   17.0120 N.3     9  ILE9       -0.1231
      2  CA         6.3100    3.3630   15.7960 C.3     9  ILE9        0.1692
      3  C          7.6980    2.9070   16.2110 C.2     9  ILE9        0.2592
      4  O          8.5340    3.6800   16.7780 O.2     9  ILE9       -0.2718
      5  CB         6.1050    4.1310   14.4410 C.3     9  ILE9        0.0266
      6  CG1        6.6160    3.2780   13.2280 C.3     9  ILE9        0.0019
      7  CG2        6.9480    5.4650   14.3590 C.3     9  ILE9        0.0020
      8  CD1        6.2780    3.5800   11.7580 C.3     9  ILE9        0.0001
      9  N          7.9830    1.6280   16.0290 N.am   10  VAL10      -0.1966
     10  CA         9.3000    1.0470   16.4260 C.3    10  VAL10       0.1727
     11  C          9.6840   -0.0820   15.4800 C.2    10  VAL10       0.2616
     12  O          8.8470   -0.7450   14.8680 O.2    10  VAL10      -0.2715
     13  CB         9.2730    0.7000   17.9580 C.3    10  VAL10       0.0290
     14  CG1        8.2180   -0.3630   18.2370 C.3    10  VAL10       0.0023
     15  CG2       10.6510    0.4020   18.5900 C.3    10  VAL10       0.0023
     16  N         10.9680   -0.3650   15.3800 N.am   11  ALA11      -0.1977
     17  CA        11.5830   -1.4250   14.6300 C.3    11  ALA11       0.1597
     18  C         12.4810   -2.0870   15.6760 C.2    11  ALA11       0.2287
     19  O         13.4340   -1.3850   16.0890 O.2    11  ALA11      -0.2864
     20  CB        12.4290   -1.0300   13.4370 C.3    11  ALA11       0.0319
     21  N         16.8400   -2.0870   20.2900 N.3    18  ILE18      -0.1245
     22  CA        16.4220   -1.0100   19.3040 C.3    18  ILE18       0.1561
     23  C         17.6090   -0.1850   18.8030 C.2    18  ILE18       0.2260
     24  O         17.4370    0.5280   17.7980 O.2    18  ILE18      -0.2867
     25  CB        15.2050   -0.1510   19.8250 C.3    18  ILE18       0.0252
     26  CG1       15.5640    0.6680   21.0880 C.3    18  ILE18       0.0019
     27  CG2       13.8670   -0.9270   20.1560 C.3    18  ILE18       0.0019
     28  CD1       14.5410    1.7110   21.5190 C.3    18  ILE18       0.0001
     29  N         22.6050    4.7920   17.3660 N.3    23  SER23      -0.1202
     30  CA        22.1430    4.4910   16.0150 C.3    23  SER23       0.2020
     31  C         21.2850    3.2460   16.0400 C.2    23  SER23       0.2618
     32  O         21.3850    2.4380   16.9690 O.2    23  SER23      -0.2717
     33  CB        23.2860    4.2450   15.0220 C.3    23  SER23       0.2103
     34  OG        23.3490    5.3870   14.1810 O.3    23  SER23      -0.2182
     35  N         20.5120    3.1430   14.9820 N.am   24  LEU24      -0.1979
     36  CA        19.6220    1.9130   14.8490 C.3    24  LEU24       0.1596
     37  C         20.6660    1.0200   14.1750 C.2    24  LEU24       0.2287
     38  O         21.2420    1.4590   13.1710 O.2    24  LEU24      -0.2864
     39  CB        18.3310    2.4530   14.2730 C.3    24  LEU24       0.0297
     40  CG        18.3800    3.4630   13.1320 C.3    24  LEU24       0.0022
     41  CD1       19.4490    3.1160   12.0840 C.3    24  LEU24       0.0001
     42  CD2       17.0270    3.5160   12.4230 C.3    24  LEU24       0.0001
     43  N         21.1900   -1.3410   11.8580 N.3    26  TRP26      -0.1241
     44  CA        21.0010   -1.9920   10.5650 C.3    26  TRP26       0.1605
     45  C         20.6720   -0.8970    9.5480 C.2    26  TRP26       0.2264
     46  O         20.2670    0.2300    9.9170 O.2    26  TRP26      -0.2867
     47  CB        19.8800   -3.0530   10.8000 C.3    26  TRP26       0.0550
     48  CG        18.7150   -2.3710   11.4410 C.ar   26  TRP26       0.0003
     49  CD1       17.9830   -1.3750   10.8590 C.ar   26  TRP26       0.0946
     50  CD2       18.1930   -2.5560   12.7650 C.ar   26  TRP26       0.0152
     51  NE1       17.0070   -0.9540   11.7190 N.ar   26  TRP26      -0.2442
     52  CE2       17.1010   -1.6490   12.9040 C.ar   26  TRP26       0.0810
     53  CE3       18.5330   -3.3840   13.8360 C.ar   26  TRP26       0.0012
     54  CZ2       16.3450   -1.5440   14.0730 C.ar   26  TRP26       0.0191
     55  CZ3       17.7570   -3.2730   14.9910 C.ar   26  TRP26       0.0001
     56  CH2       16.6990   -2.3880   15.1210 C.ar   26  TRP26       0.0015
     57  N         18.2450   -0.7010    6.4120 N.3    28  LEU28      -0.1245
     58  CA        17.0620   -1.1880    5.6980 C.3    28  LEU28       0.1561
     59  C         16.1720   -0.1600    4.9850 C.2    28  LEU28       0.2260
     60  O         15.1450    0.3590    5.4190 O.2    28  LEU28      -0.2867
     61  CB        16.2140   -1.9980    6.6810 C.3    28  LEU28       0.0270
     62  CG        16.4500   -3.4190    7.0890 C.3    28  LEU28       0.0019
     63  CD1       17.8370   -3.8980    6.7280 C.3    28  LEU28       0.0001
     64  CD2       16.3120   -3.4690    8.6360 C.3    28  LEU28       0.0001
     65  N         12.5870   -0.6950    4.9030 N.3    31  GLU31      -0.1231
     66  CA        11.9230   -0.6190    6.2250 C.3    31  GLU31       0.1699
     67  C         11.8810    0.8760    6.5030 C.2    31  GLU31       0.2592
     68  O         10.7870    1.3510    6.8220 O.2    31  GLU31      -0.2718
     69  CB        12.5590   -1.5090    7.2430 C.3    31  GLU31       0.0402
     70  CG        11.8610   -1.7470    8.5880 C.3    31  GLU31       0.1161
     71  CD        11.4570   -0.5290    9.3750 C.2    31  GLU31       0.3649
     72  OE1       12.2520    0.3680    9.5920 O.co2  31  GLU31      -0.2457
     73  OE2       10.2710   -0.5770    9.7540 O.co2  31  GLU31      -0.2457
     74  N         12.9070    1.6190    6.2640 N.am   32  ILE32      -0.1980
     75  CA        12.9050    3.1000    6.4250 C.3    32  ILE32       0.1595
     76  C         11.8530    3.7100    5.4960 C.2    32  ILE32       0.2287
     77  O         11.2050    4.7370    5.8320 O.2    32  ILE32      -0.2864
     78  CB        14.3530    3.6280    6.1000 C.3    32  ILE32       0.0276
     79  CG1       15.1870    4.0420    7.3320 C.3    32  ILE32       0.0022
     80  CG2       14.3740    4.6920    4.9840 C.3    32  ILE32       0.0022
     81  CD1       14.3580    4.8560    8.3570 C.3    32  ILE32       0.0001
     82  N          9.1580    2.3300    4.7900 N.3    34  TYR34      -0.1227
     83  CA         7.8500    2.0990    5.5000 C.3    34  TYR34       0.1736
     84  C          7.6170    3.1960    6.5400 C.2    34  TYR34       0.2595
     85  O          6.5000    3.7320    6.7110 O.2    34  TYR34      -0.2718
     86  CB         7.7290    0.6330    5.9370 C.3    34  TYR34       0.0548
     87  CG         6.4590    0.2870    6.7030 C.ar   34  TYR34      -0.0200
     88  CD1        5.2180   -0.0360    6.1460 C.ar   34  TYR34      -0.0009
     89  CD2        6.5620    0.2390    8.0970 C.ar   34  TYR34      -0.0009
     90  CE1        4.1110   -0.3480    6.9330 C.ar   34  TYR34       0.0417
     91  CE2        5.4650   -0.0720    8.9010 C.ar   34  TYR34       0.0417
     92  CZ         4.2520   -0.3450    8.3220 C.ar   34  TYR34       0.1957
     93  OH         3.2330   -0.6540    9.1950 O.3    34  TYR34      -0.2866
     94  N          8.6200    3.5400    7.3090 N.am   35  PHE35      -0.1976
     95  CA         8.5070    4.5880    8.4030 C.3    35  PHE35       0.1639
     96  C          7.9060    5.8770    7.8290 C.2    35  PHE35       0.2290
     97  O          6.9000    6.4860    8.2960 O.2    35  PHE35      -0.2864
     98  CB         9.8020    4.7190    9.1790 C.3    35  PHE35       0.0560
     99  CG         9.9640    5.9600   10.0140 C.ar   35  PHE35      -0.0200
    100  CD1        9.7860    5.8860   11.4180 C.ar   35  PHE35      -0.0042
    101  CD2       10.2850    7.1880    9.4450 C.ar   35  PHE35      -0.0042
    102  CE1        9.9610    6.9730   12.2360 C.ar   35  PHE35      -0.0003
    103  CE2       10.4340    8.3110   10.2720 C.ar   35  PHE35      -0.0003
    104  CZ        10.2600    8.1990   11.6700 C.ar   35  PHE35      -0.0000
    105  N         17.4500   10.8090   19.8820 N.3    60  THR60      -0.1218
    106  CA        16.9390   10.2470   18.6290 C.3    60  THR60       0.1862
    107  C         17.0890   11.4180   17.6280 C.2    60  THR60       0.2287
    108  O         17.3320   11.2350   16.4190 O.2    60  THR60      -0.2866
    109  CB        15.4350    9.7480   18.6480 C.3    60  THR60       0.1770
    110  OG1       15.2830    8.5870   19.5410 O.3    60  THR60      -0.2211
    111  CG2       14.8460    9.5280   17.2690 C.3    60  THR60       0.0375
    112  N         20.8310   11.5170   16.5860 N.3    63  SER63      -0.1202
    113  CA        20.9790   10.2020   15.9770 C.3    63  SER63       0.2020
    114  C         20.5130   10.1960   14.5190 C.2    63  SER63       0.2619
    115  O         21.0510    9.2850   13.8900 O.2    63  SER63      -0.2717
    116  CB        20.2510    9.0300   16.6160 C.3    63  SER63       0.2103
    117  OG        19.0950    8.9360   15.7620 O.3    63  SER63      -0.2182
    118  N         19.6550   11.1250   14.1430 N.am   64  ILE64      -0.1966
    119  CA        19.1630   11.2410   12.7610 C.3    64  ILE64       0.1712
    120  C         20.2750   11.8810   11.8830 C.2    64  ILE64       0.2458
    121  O         21.0340   12.7600   12.3630 O.2    64  ILE64      -0.2730
    122  CB        17.8220   12.0600   12.6910 C.3    64  ILE64       0.0289
    123  CG1       16.7970   11.5370   13.7350 C.3    64  ILE64       0.0022
    124  CG2       17.2200   12.1180   11.2500 C.3    64  ILE64       0.0023
    125  CD1       15.3000   11.8760   13.5030 C.3    64  ILE64       0.0001
    126  N         20.3770   11.4300   10.6410 N.am   65  PRO65      -0.2727
    127  CA        21.3610   11.9460    9.6880 C.3    65  PRO65       0.1402
    128  C         21.0160   13.3920    9.3050 C.2    65  PRO65       0.2269
    129  O         19.9010   13.6500    8.8130 O.2    65  PRO65      -0.2865
    130  CB        21.3030   11.0080    8.4980 C.3    65  PRO65       0.0296
    131  CG        20.2650    9.9700    8.8060 C.3    65  PRO65       0.0237
    132  CD        19.5060   10.3990   10.0370 C.3    65  PRO65       0.0939
    133  N         18.5760   14.1370    6.5540 N.3    68  PHE68      -0.1241
    134  CA        17.1400   13.8930    6.5770 C.3    68  PHE68       0.1605
    135  C         16.1670   14.6470    7.4510 C.2    68  PHE68       0.2264
    136  O         14.9150   14.4720    7.3870 O.2    68  PHE68      -0.2867
    137  CB        16.9630   12.3460    6.7700 C.3    68  PHE68       0.0534
    138  CG        17.6960   11.6810    5.6310 C.ar   68  PHE68      -0.0203
    139  CD1       18.9450   11.1110    5.8340 C.ar   68  PHE68      -0.0042
    140  CD2       17.1400   11.7040    4.3460 C.ar   68  PHE68      -0.0042
    141  CE1       19.6580   10.5390    4.7750 C.ar   68  PHE68      -0.0003
    142  CE2       17.8420   11.1350    3.2600 C.ar   68  PHE68      -0.0003
    143  CZ        19.1190   10.5480    3.4880 C.ar   68  PHE68      -0.0000
    144  N         12.4160   15.8990    9.8930 N.3    71  LEU71      -0.1245
    145  CA        11.7470   14.9230    9.0030 C.3    71  LEU71       0.1561
    146  C         10.6970   15.7300    8.2380 C.2    71  LEU71       0.2260
    147  O          9.9240   16.4580    8.8610 O.2    71  LEU71      -0.2867
    148  CB        11.1720   13.7660    9.8100 C.3    71  LEU71       0.0270
    149  CG        12.0990   12.9270   10.6880 C.3    71  LEU71       0.0019
    150  CD1       11.2890   11.9170   11.5020 C.3    71  LEU71       0.0001
    151  CD2       13.1030   12.2880    9.7210 C.3    71  LEU71       0.0001
    152  N          8.1270    8.4940   17.9720 N.3   122  ILE122     -0.1245
    153  CA         9.2190    7.7570   17.3060 C.3   122  ILE122      0.1561
    154  C         10.3910    7.3480   18.1190 C.2   122  ILE122      0.2260
    155  O         11.4560    6.9460   17.5870 O.2   122  ILE122     -0.2867
    156  CB         9.5770    8.5320   15.9240 C.3   122  ILE122      0.0252
    157  CG1       10.4350    9.7350   16.1520 C.3   122  ILE122      0.0019
    158  CG2        8.2590    8.7340   15.1810 C.3   122  ILE122      0.0019
    159  CD1       11.7730   10.1850   15.5380 C.3   122  ILE122      0.0001
    160  N          9.7730    6.2870   24.6530 N.3   128  TYR128     -0.1241
    161  CA         8.8940    5.1380   24.4970 C.3   128  TYR128      0.1605
    162  C          8.3430    4.7000   25.8950 C.2   128  TYR128      0.2264
    163  O          7.2440    4.1790   25.8870 O.2   128  TYR128     -0.2867
    164  CB         9.5480    3.9000   23.8460 C.3   128  TYR128      0.0534
    165  CG         9.9040    3.8860   22.3750 C.ar  128  TYR128     -0.0201
    166  CD1        9.0040    4.3960   21.4620 C.ar  128  TYR128     -0.0009
    167  CD2       11.1070    3.3070   21.8840 C.ar  128  TYR128     -0.0009
    168  CE1        9.2340    4.4250   20.0790 C.ar  128  TYR128      0.0417
    169  CE2       11.3450    3.3080   20.4990 C.ar  128  TYR128      0.0417
    170  CZ        10.4270    3.8340   19.6060 C.ar  128  TYR128      0.1957
    171  OH        10.6280    3.8620   18.2410 O.3   128  TYR128     -0.2866
    172  N          7.8840   -3.2200   13.7530 N.3   143  THR143     -0.1218
    173  CA         8.6580   -3.9140   12.7340 C.3   143  THR143      0.1862
    174  C          9.5550   -4.8580   13.5940 C.2   143  THR143      0.2287
    175  O         10.3780   -4.4000   14.3860 O.2   143  THR143     -0.2866
    176  CB         9.5850   -3.1280   11.6970 C.3   143  THR143      0.1770
    177  OG1        8.7340   -2.1910   10.9800 O.3   143  THR143     -0.2211
    178  CG2       10.3370   -4.1170   10.7960 C.3   143  THR143      0.0375
@<TRIPOS>BOND
     1   142   143   ar
     2   142   140   ar
     3   143   141   ar
     4   140   138   ar
     5   141   139   ar
     6    82    83    1
     7    65    66    1
     8    80    78    1
     9    59    60    2
    10    59    58    1
    11    76    77    2
    12    76    75    1
    13    83    86    1
    14    83    84    1
    15   138   139   ar
    16   138   137    1
    17    58    57    1
    18    58    61    1
    19    86    87    1
    20    78    75    1
    21    78    79    1
    22    88    87   ar
    23    88    90   ar
    24    66    67    1
    25    66    69    1
    26    74    75    1
    27    74    67   am
    28    67    68    2
    29    84    85    2
    30    84    94   am
    31   133   134    1
    32   134   137    1
    33   134   135    1
    34    61    62    1
    35    87    89   ar
    36    63    62    1
    37    90    92   ar
    38    62    64    1
    39    69    70    1
    40    94    95    1
    41    79    81    1
    42   136   135    2
    43    96    97    2
    44    96    95    1
    45    89    91   ar
    46   146   147    2
    47   146   145    1
    48    92    91   ar
    49    92    93    1
    50    95    98    1
    51   130   131    1
    52   130   127    1
    53    70    71    1
    54   131   132    1
    55   129   128    2
    56   145   148    1
    57   145   144    1
    58    98    99    1
    59   128   127    1
    60    71    72   ar
    61    71    73   ar
    62   101    99   ar
    63   101   103   ar
    64    45    46    2
    65    45    44    1
    66   127   126    1
    67   151   149    1
    68   148   149    1
    69    99   100   ar
    70   132   126    1
    71   103   104   ar
    72    44    47    1
    73    44    43    1
    74   126   120   am
    75   149   150    1
    76   178   176    1
    77    47    48    1
    78    49    48   ar
    79    49    51   ar
    80   177   176    1
    81   124   122    1
    82   100   102   ar
    83    48    50   ar
    84   104   102   ar
    85   176   173    1
    86    51    52   ar
    87     8     6    1
    88   120   121    2
    89   120   119    1
    90    41    40    1
    91    42    40    1
    92   122   119    1
    93   122   123    1
    94   173   174    1
    95   173   172    1
    96   119   118    1
    97    50    52   ar
    98    50    53   ar
    99    52    54   ar
   100    40    39    1
   101    38    37    2
   102     6     5    1
   103    20    17    1
   104   125   123    1
   105   174   175    2
   106    53    55   ar
   107   115   114    2
   108    54    56   ar
   109   118   114   am
   110    37    36    1
   111    34    33    1
   112    39    36    1
   113     7     5    1
   114     5     2    1
   115   114   113    1
   116    17    16    1
   117    17    18    1
   118    36    35    1
   119    12    11    2
   120    35    31   am
   121    55    56   ar
   122    33    30    1
   123   158   156    1
   124    16    11   am
   125    11    10    1
   126   159   157    1
   127    18    19    2
   128   117   116    1
   129     2     3    1
   130     2     1    1
   131   156   157    1
   132   156   153    1
   133   113   112    1
   134   113   116    1
   135    30    31    1
   136    30    29    1
   137     9     3   am
   138     9    10    1
   139    31    32    2
   140     3     4    2
   141   108   107    2
   142    10    13    1
   143   111   109    1
   144   153   152    1
   145   153   154    1
   146   155   154    2
   147   107   106    1
   148    24    23    2
   149    13    14    1
   150    13    15    1
   151   171   170    1
   152   106   109    1
   153   106   105    1
   154   109   110    1
   155    23    22    1
   156    22    25    1
   157    22    21    1
   158   170   168   ar
   159   170   169   ar
   160    25    27    1
   161    25    26    1
   162   168   166   ar
   163   169   167   ar
   164    26    28    1
   165   166   165   ar
   166   167   165   ar
   167   165   164    1
   168   164   161    1
   169   161   160    1
   170   161   162    1
   171   163   162    2
