@<TRIPOS>MOLECULE
tmp/1vj5A00.pdb
 197 192 0 0 0
SMALL
GASTEIGER

@<TRIPOS>ATOM
      1  N         20.6350   15.9840  138.9470 N.3   266  PHE266     -0.1228
      2  CA        21.7420   15.0380  138.8460 C.3   266  PHE266      0.1721
      3  C         21.8490   14.5070  137.4300 C.2   266  PHE266      0.2437
      4  O         20.8500   14.1340  136.8320 O.2   266  PHE266     -0.2733
      5  CB        21.5190   13.8530  139.8010 C.3   266  PHE266      0.0547
      6  CG        22.4900   12.7080  139.5960 C.ar  266  PHE266     -0.0202
      7  CD1       22.3390   11.8270  138.5230 C.ar  266  PHE266     -0.0042
      8  CD2       23.5830   12.5450  140.4470 C.ar  266  PHE266     -0.0042
      9  CE1       23.2710   10.7970  138.2940 C.ar  266  PHE266     -0.0003
     10  CE2       24.5240   11.5210  140.2340 C.ar  266  PHE266     -0.0003
     11  CZ        24.3660   10.6450  139.1510 C.ar  266  PHE266     -0.0000
     12  N         23.0610   14.4970  136.8620 N.am  267  PRO267     -0.2729
     13  CA        24.3290   14.9550  137.4390 C.3   267  PRO267      0.1401
     14  C         24.6670   16.1640  136.5750 C.2   267  PRO267      0.2269
     15  O         25.2940   16.0350  135.5320 O.2   267  PRO267     -0.2865
     16  CB        25.2520   13.7700  137.1910 C.3   267  PRO267      0.0296
     17  CG        24.8210   13.3230  135.8060 C.3   267  PRO267      0.0237
     18  CD        23.3060   13.5620  135.7430 C.3   267  PRO267      0.0939
     19  N         14.6720   18.2380  138.6980 N.3   334  ASP334     -0.1225
     20  CA        15.1370   16.9280  139.1500 C.3   334  ASP334      0.1805
     21  C         15.4080   16.9820  140.6570 C.2   334  ASP334      0.2597
     22  O         14.5570   17.4330  141.4050 O.2   334  ASP334     -0.2718
     23  CB        16.4000   16.5140  138.3760 C.3   334  ASP334      0.1424
     24  CG        16.7810   15.0530  138.6140 C.2   334  ASP334      0.3668
     25  OD1       17.7690   14.7990  139.3370 O.co2 334  ASP334     -0.2456
     26  OD2       16.0810   14.1610  138.0850 O.co2 334  ASP334     -0.2456
     27  N         16.5810   16.5340  141.1090 N.am  335  TRP335     -0.1976
     28  CA        16.8740   16.5740  142.5460 C.3   335  TRP335      0.1640
     29  C         16.7370   17.9790  143.0940 C.2   335  TRP335      0.2290
     30  O         16.3480   18.1620  144.2390 O.2   335  TRP335     -0.2864
     31  CB        18.2730   16.0350  142.8710 C.3   335  TRP335      0.0576
     32  CG        18.2600   14.5740  143.2050 C.ar  335  TRP335      0.0006
     33  CD1       18.6700   13.5410  142.4030 C.ar  335  TRP335      0.0946
     34  CD2       17.7690   13.9730  144.4130 C.ar  335  TRP335      0.0152
     35  NE1       18.4630   12.3400  143.0370 N.ar  335  TRP335     -0.2442
     36  CE2       17.9110   12.5730  144.2710 C.ar  335  TRP335      0.0810
     37  CE3       17.2190   14.4810  145.5990 C.ar  335  TRP335      0.0012
     38  CZ2       17.5240   11.6710  145.2740 C.ar  335  TRP335      0.0191
     39  CZ3       16.8320   13.5800  146.6020 C.ar  335  TRP335      0.0001
     40  CH2       16.9880   12.1920  146.4280 C.ar  335  TRP335      0.0015
     41  N         13.2360   18.6300  144.0200 N.3   338  MET338     -0.1245
     42  CA        12.8730   17.9980  145.2790 C.3   338  MET338      0.1570
     43  C         13.2960   18.9250  146.4170 C.2   338  MET338      0.2261
     44  O         12.5920   19.0550  147.4150 O.2   338  MET338     -0.2867
     45  CB        13.5840   16.6460  145.4210 C.3   338  MET338      0.0387
     46  CG        13.2580   15.8900  146.7050 C.3   338  MET338      0.0595
     47  SD        11.5110   15.3930  146.7910 S.3   338  MET338     -0.1393
     48  CE        11.5440   13.9550  145.8040 C.3   338  MET338      0.0692
     49  N         10.0480   17.2440  138.6370 N.3   359  THR359     -0.1218
     50  CA         9.9170   16.6650  139.9740 C.3   359  THR359      0.1862
     51  C          8.6310   17.0890  140.6900 C.2   359  THR359      0.2287
     52  O          8.4420   18.2570  141.0070 O.2   359  THR359     -0.2866
     53  CB        11.1090   17.0600  140.8560 C.3   359  THR359      0.1770
     54  OG1       12.3220   16.8960  140.1130 O.3   359  THR359     -0.2211
     55  CG2       11.1540   16.1930  142.1020 C.3   359  THR359      0.0375
     56  N         12.6260    2.9310  138.8310 N.3   380  PHE380     -0.1241
     57  CA        13.5240    3.4460  139.8680 C.3   380  PHE380      0.1605
     58  C         14.5690    2.4290  140.3010 C.2   380  PHE380      0.2264
     59  O         15.1710    2.5800  141.3650 O.2   380  PHE380     -0.2867
     60  CB        12.7470    3.8750  141.1220 C.3   380  PHE380      0.0534
     61  CG        11.9520    5.1490  140.9660 C.ar  380  PHE380     -0.0203
     62  CD1       12.0780    5.9450  139.8340 C.ar  380  PHE380     -0.0042
     63  CD2       11.0840    5.5580  141.9770 C.ar  380  PHE380     -0.0042
     64  CE1       11.3520    7.1310  139.7090 C.ar  380  PHE380     -0.0003
     65  CE2       10.3550    6.7390  141.8650 C.ar  380  PHE380     -0.0003
     66  CZ        10.4900    7.5290  140.7250 C.ar  380  PHE380     -0.0000
     67  N         17.4690    1.8450  138.9800 N.3   382  TYR382     -0.1227
     68  CA        18.7770    2.4830  138.9300 C.3   382  TYR382      0.1736
     69  C         19.1180    3.1280  140.2810 C.2   382  TYR382      0.2595
     70  O         20.2850    3.2340  140.6380 O.2   382  TYR382     -0.2718
     71  CB        18.7980    3.5260  137.8090 C.3   382  TYR382      0.0548
     72  CG        17.9750    4.7450  138.1240 C.ar  382  TYR382     -0.0200
     73  CD1       18.5070    5.7850  138.8820 C.ar  382  TYR382     -0.0009
     74  CD2       16.6460    4.8350  137.7220 C.ar  382  TYR382     -0.0009
     75  CE1       17.7340    6.8790  139.2400 C.ar  382  TYR382      0.0417
     76  CE2       15.8650    5.9310  138.0700 C.ar  382  TYR382      0.0417
     77  CZ        16.4210    6.9500  138.8330 C.ar  382  TYR382      0.1957
     78  OH        15.6700    8.0480  139.1790 O.3   382  TYR382     -0.2866
     79  N         18.0980    3.5560  141.0260 N.am  383  GLN383     -0.1979
     80  CA        18.3330    4.1560  142.3410 C.3   383  GLN383      0.1601
     81  C         18.9440    3.1250  143.2950 C.2   383  GLN383      0.2287
     82  O         19.8080    3.4500  144.0940 O.2   383  GLN383     -0.2864
     83  CB        17.0330    4.7060  142.9390 C.3   383  GLN383      0.0394
     84  CG        16.3840    5.8060  142.1110 C.3   383  GLN383      0.0908
     85  CD        15.2780    6.5420  142.8580 C.2   383  GLN383      0.2608
     86  OE1       14.5690    7.3570  142.2830 O.2   383  GLN383     -0.2717
     87  NE2       15.1350    6.2550  144.1470 N.am  383  GLN383     -0.0878
     88  N         22.4840    2.8360  142.6430 N.3   386  PHE386     -0.1241
     89  CA        23.2590    3.9670  143.1450 C.3   386  PHE386      0.1605
     90  C         23.6130    3.8680  144.6290 C.2   386  PHE386      0.2264
     91  O         24.4750    4.5850  145.1050 O.2   386  PHE386     -0.2867
     92  CB        22.4930    5.2820  142.8980 C.3   386  PHE386      0.0534
     93  CG        22.4840    5.7360  141.4560 C.ar  386  PHE386     -0.0203
     94  CD1       23.2160    5.0560  140.4840 C.ar  386  PHE386     -0.0042
     95  CD2       21.7670    6.8710  141.0810 C.ar  386  PHE386     -0.0042
     96  CE1       23.2380    5.5000  139.1640 C.ar  386  PHE386     -0.0003
     97  CE2       21.7800    7.3270  139.7650 C.ar  386  PHE386     -0.0003
     98  CZ        22.5200    6.6400  138.7990 C.ar  386  PHE386     -0.0000
     99  N         30.4910    5.6600  136.0650 N.3   396  LEU396     -0.1245
    100  CA        30.2970    7.0290  135.5910 C.3   396  LEU396      0.1561
    101  C         31.6000    7.8020  135.3900 C.2   396  LEU396      0.2260
    102  O         31.6770    8.6670  134.5350 O.2   396  LEU396     -0.2867
    103  CB        29.3690    7.7880  136.5450 C.3   396  LEU396      0.0270
    104  CG        27.9510    7.2160  136.6410 C.3   396  LEU396      0.0019
    105  CD1       27.1990    7.8780  137.7800 C.3   396  LEU396      0.0001
    106  CD2       27.2230    7.4370  135.3310 C.3   396  LEU396      0.0001
    107  N         23.9220   10.0910  128.6810 N.3   407  LEU407     -0.1245
    108  CA        22.8120   10.5960  129.4880 C.3   407  LEU407      0.1561
    109  C         22.0050   11.6790  128.7920 C.2   407  LEU407      0.2260
    110  O         20.8090   11.5300  128.6120 O.2   407  LEU407     -0.2867
    111  CB        23.3240   11.1500  130.8200 C.3   407  LEU407      0.0270
    112  CG        24.0520   10.1760  131.7510 C.3   407  LEU407      0.0019
    113  CD1       24.4560   10.8920  133.0240 C.3   407  LEU407      0.0001
    114  CD2       23.1480    8.9890  132.0660 C.3   407  LEU407      0.0001
    115  N         18.8210    6.0980  127.4670 N.3   416  LEU416     -0.1245
    116  CA        19.2400    4.9630  128.2920 C.3   416  LEU416      0.1561
    117  C         18.1030    4.1560  128.9040 C.2   416  LEU416      0.2260
    118  O         17.1510    4.7140  129.4280 O.2   416  LEU416     -0.2867
    119  CB        20.1410    5.4430  129.4350 C.3   416  LEU416      0.0270
    120  CG        21.6390    5.6080  129.1920 C.3   416  LEU416      0.0019
    121  CD1       22.2620    6.2570  130.4070 C.3   416  LEU416      0.0001
    122  CD2       22.2800    4.2530  128.9200 C.3   416  LEU416      0.0001
    123  N         16.2060    2.2330  131.6230 N.3   418  MET418     -0.1245
    124  CA        16.1920    2.3780  133.0750 C.3   418  MET418      0.1570
    125  C         15.4400    1.2260  133.7480 C.2   418  MET418      0.2261
    126  O         14.8680    1.4080  134.8120 O.2   418  MET418     -0.2867
    127  CB        15.5010    3.6980  133.4360 C.3   418  MET418      0.0387
    128  CG        16.2850    4.6460  134.3320 C.3   418  MET418      0.0595
    129  SD        17.6630    5.4670  133.5160 S.3   418  MET418     -0.1393
    130  CE        18.9140    5.3410  134.7680 C.3   418  MET418      0.0692
    131  N         24.8480    0.7080  134.1940 N.3   427  LEU427     -0.1245
    132  CA        23.9580    1.6810  133.5780 C.3   427  LEU427      0.1561
    133  C         24.2110    1.8110  132.0780 C.2   427  LEU427      0.2260
    134  O         23.3000    2.1250  131.3220 O.2   427  LEU427     -0.2867
    135  CB        24.1530    3.0380  134.2540 C.3   427  LEU427      0.0270
    136  CG        23.1180    4.1360  134.0140 C.3   427  LEU427      0.0019
    137  CD1       21.7670    3.6850  134.5500 C.3   427  LEU427      0.0001
    138  CD2       23.5680    5.4150  134.7160 C.3   427  LEU427      0.0001
    139  N         21.4700   10.3900  146.5780 N.3   465  TYR465     -0.1241
    140  CA        20.5780    9.2330  146.5310 C.3   465  TYR465      0.1605
    141  C         20.7210    8.3300  147.7510 C.2   465  TYR465      0.2264
    142  O         19.9140    7.4270  147.9450 O.2   465  TYR465     -0.2867
    143  CB        20.9020    8.3730  145.3060 C.3   465  TYR465      0.0534
    144  CG        20.5420    8.9690  143.9680 C.ar  465  TYR465     -0.0201
    145  CD1       19.3070    8.7080  143.3810 C.ar  465  TYR465     -0.0009
    146  CD2       21.4500    9.7530  143.2710 C.ar  465  TYR465     -0.0009
    147  CE1       18.9900    9.2060  142.1240 C.ar  465  TYR465      0.0417
    148  CE2       21.1420   10.2600  142.0130 C.ar  465  TYR465      0.0417
    149  CZ        19.9150    9.9790  141.4480 C.ar  465  TYR465      0.1957
    150  OH        19.6260   10.4520  140.1990 O.3   465  TYR465     -0.2866
    151  N         17.8890    8.1360  151.6730 N.3   468  MET468     -0.1245
    152  CA        16.4550    7.8630  151.5720 C.3   468  MET468      0.1570
    153  C         15.7320    7.7920  152.9130 C.2   468  MET468      0.2261
    154  O         14.7580    8.4970  153.1170 O.2   468  MET468     -0.2867
    155  CB        16.2060    6.5850  150.7640 C.3   468  MET468      0.0387
    156  CG        16.6690    6.6890  149.3190 C.3   468  MET468      0.0595
    157  SD        16.1740    8.2550  148.5280 S.3   468  MET468     -0.1393
    158  CE        16.7700    7.9860  146.8410 C.3   468  MET468      0.0692
    159  N         11.0820    8.8440  133.6860 N.3   497  VAL497     -0.1231
    160  CA        11.4280    8.5380  135.0700 C.3   497  VAL497      0.1692
    161  C         10.5560    9.4400  135.9510 C.2   497  VAL497      0.2591
    162  O          9.8870    8.9640  136.8640 O.2   497  VAL497     -0.2718
    163  CB        12.9440    8.7520  135.3640 C.3   497  VAL497      0.0266
    164  CG1       13.4140   10.0720  134.8020 C.3   497  VAL497      0.0020
    165  CG2       13.1900    8.7030  136.8660 C.3   497  VAL497      0.0020
    166  N         10.5560   10.7390  135.6570 N.am  498  LEU498     -0.1980
    167  CA         9.7260   11.6960  136.3810 C.3   498  LEU498      0.1596
    168  C          8.5150   11.9790  135.4920 C.2   498  LEU498      0.2287
    169  O          8.4130   13.0220  134.8460 O.2   498  LEU498     -0.2864
    170  CB        10.5000   12.9910  136.6740 C.3   498  LEU498      0.0297
    171  CG        11.5940   12.8870  137.7500 C.3   498  LEU498      0.0022
    172  CD1       12.2420   14.2500  137.9840 C.3   498  LEU498      0.0001
    173  CD2       10.9880   12.3680  139.0460 C.3   498  LEU498      0.0001
    174  N         13.6620   14.2850  129.7670 N.3   523  HIS523     -0.1226
    175  CA        14.0400   14.5680  131.1440 C.3   523  HIS523      0.1752
    176  C         14.8590   15.8520  131.3120 C.2   523  HIS523      0.2596
    177  O         14.6660   16.5890  132.2580 O.2   523  HIS523     -0.2718
    178  CB        14.8330   13.3990  131.7200 C.3   523  HIS523      0.0759
    179  CG        15.3650   13.6630  133.0930 C.ar  523  HIS523      0.0818
    180  ND1       14.5520   13.7200  134.2040 N.ar  523  HIS523     -0.2268
    181  CD2       16.6160   13.9600  133.5210 C.ar  523  HIS523      0.1154
    182  CE1       15.2800   14.0450  135.2580 C.ar  523  HIS523      0.1986
    183  NE2       16.5350   14.1960  134.8710 N.ar  523  HIS523     -0.2212
    184  N         15.7730   16.1000  130.3820 N.am  524  TRP524     -0.1976
    185  CA        16.6410   17.2730  130.4240 C.3   524  TRP524      0.1640
    186  C         15.8800   18.4850  129.9040 C.2   524  TRP524      0.2290
    187  O         16.2720   19.1300  128.9370 O.2   524  TRP524     -0.2864
    188  CB        17.8850   16.9780  129.5870 C.3   524  TRP524      0.0576
    189  CG        18.4150   15.6080  129.9000 C.ar  524  TRP524      0.0006
    190  CD1       18.2470   14.4710  129.1580 C.ar  524  TRP524      0.0946
    191  CD2       19.0810   15.2040  131.1060 C.ar  524  TRP524      0.0152
    192  NE1       18.7610   13.3820  129.8320 N.ar  524  TRP524     -0.2442
    193  CE2       19.2760   13.8050  131.0310 C.ar  524  TRP524      0.0810
    194  CE3       19.5250   15.8880  132.2470 C.ar  524  TRP524      0.0012
    195  CZ2       19.8950   13.0780  132.0550 C.ar  524  TRP524      0.0191
    196  CZ3       20.1360   15.1680  133.2630 C.ar  524  TRP524      0.0001
    197  CH2       20.3150   13.7750  133.1610 C.ar  524  TRP524      0.0015
@<TRIPOS>BOND
     1   115   116    1
     2   116   117    1
     3   116   119    1
     4   110   109    2
     5   107   108    1
     6   109   108    1
     7   117   118    2
     8   122   120    1
     9   187   186    2
    10   190   192   ar
    11   190   189   ar
    12   120   119    1
    13   120   121    1
    14   108   111    1
    15   188   189    1
    16   188   185    1
    17   174   175    1
    18   192   193   ar
    19   189   191   ar
    20   186   185    1
    21   184   185    1
    22   184   176   am
    23   111   112    1
    24   193   191   ar
    25   193   195   ar
    26   191   194   ar
    27   175   176    1
    28   175   178    1
    29   176   177    2
    30   134   133    2
    31   123   124    1
    32   178   179    1
    33   112   114    1
    34   112   113    1
    35   195   197   ar
    36   133   132    1
    37   194   196   ar
    38   124   127    1
    39   124   125    1
    40   179   181   ar
    41   179   180   ar
    42   197   196   ar
    43   127   128    1
    44   129   128    1
    45   129   130    1
    46   181   183   ar
    47   132   131    1
    48   132   135    1
    49   159   160    1
    50   125   126    2
    51   136   135    1
    52   136   137    1
    53   136   138    1
    54   180   182   ar
    55   102   101    2
    56   164   163    1
    57   169   168    2
    58   183   182   ar
    59   160   163    1
    60   160   161    1
    61   106   104    1
    62   163   165    1
    63   101   100    1
    64   168   167    1
    65    15    14    2
    66   100    99    1
    67   100   103    1
    68   166   161   am
    69   166   167    1
    70    18    17    1
    71    18    12    1
    72    17    16    1
    73   161   162    2
    74   167   170    1
    75   103   104    1
    76    14    13    1
    77   104   105    1
    78   170   171    1
    79     4     3    2
    80    12     3   am
    81    12    13    1
    82    16    13    1
    83     3     2    1
    84    74    76   ar
    85    74    72   ar
    86   171   172    1
    87   171   173    1
    88    71    72    1
    89    71    68    1
    90    76    77   ar
    91    26    24   ar
    92    72    73   ar
    93     9     7   ar
    94     9    11   ar
    95    23    24    1
    96    23    20    1
    97     7     6   ar
    98    24    25   ar
    99    49    50    1
   100    19    20    1
   101    98    96   ar
   102    98    97   ar
   103    56    57    1
   104    77    78    1
   105    77    75   ar
   106     2     1    1
   107     2     5    1
   108    73    75   ar
   109    68    67    1
   110    68    69    1
   111    20    21    1
   112    11    10   ar
   113    96    94   ar
   114     6     5    1
   115     6     8   ar
   116    64    62   ar
   117    64    66   ar
   118    97    95   ar
   119    62    61   ar
   120    57    58    1
   121    57    60    1
   122    50    51    1
   123    50    53    1
   124    54    53    1
   125   150   149    1
   126    10     8   ar
   127    69    70    2
   128    69    79   am
   129    58    59    2
   130    94    93   ar
   131    21    27   am
   132    21    22    2
   133    51    52    2
   134    66    65   ar
   135    53    55    1
   136    61    60    1
   137    61    63   ar
   138    79    80    1
   139    95    93   ar
   140    27    28    1
   141   149   148   ar
   142   149   147   ar
   143    93    92    1
   144    65    63   ar
   145   148   146   ar
   146    84    85    1
   147    84    83    1
   148   147   145   ar
   149    86    85    2
   150    80    83    1
   151    80    81    1
   152    33    35   ar
   153    33    32   ar
   154    28    31    1
   155    28    29    1
   156    88    89    1
   157    85    87   am
   158    31    32    1
   159    92    89    1
   160    35    36   ar
   161    29    30    2
   162    89    90    1
   163    32    34   ar
   164   146   144   ar
   165    81    82    2
   166   145   144   ar
   167   144   143    1
   168    41    42    1
   169    36    34   ar
   170    36    38   ar
   171    34    37   ar
   172    90    91    2
   173    38    40   ar
   174    42    45    1
   175    42    43    1
   176   143   140    1
   177    45    46    1
   178    37    39   ar
   179    48    47    1
   180    43    44    2
   181    40    39   ar
   182   140   139    1
   183   140   141    1
   184    46    47    1
   185   158   157    1
   186   141   142    2
   187   157   156    1
   188   156   155    1
   189   155   152    1
   190   152   151    1
   191   152   153    1
   192   153   154    2
