@<TRIPOS>MOLECULE
tmp/1vj6A00.pdb
 128 121 0 0 0
SMALL
GASTEIGER

@<TRIPOS>ATOM
      1  N         -1.6630   11.1340    1.0040 N.3    13  LYS13      -0.1245
      2  CA        -1.3170   11.1530    2.3920 C.3    13  LYS13       0.1561
      3  C         -1.4920   12.4830    3.0410 C.2    13  LYS13       0.2260
      4  O         -1.0670   13.5210    2.5360 O.2    13  LYS13      -0.2867
      5  CB         0.1520   10.7270    2.5660 C.3    13  LYS13       0.0271
      6  CG         1.0520   11.3130    1.4750 C.3    13  LYS13       0.0035
      7  CD         2.4710   11.6480    1.9390 C.3    13  LYS13       0.0206
      8  CE         3.3480   10.4180    2.1810 C.3    13  LYS13       0.1093
      9  NZ         4.5910   10.8280    2.8720 N.3    13  LYS13      -0.1314
     10  N          1.9650   13.4890    5.8710 N.3    16  GLY16      -0.1210
     11  CA         2.8870   12.4150    6.0680 C.3    16  GLY16       0.1956
     12  C          2.3120   11.2100    6.7320 C.2    16  GLY16       0.2613
     13  O          2.8780   10.6990    7.6970 O.2    16  GLY16      -0.2717
     14  N          1.1800   10.7010    6.2160 N.am   17  SER17      -0.1938
     15  CA         0.4630    9.6000    6.7770 C.3    17  SER17       0.2055
     16  C         -0.7030    9.3170    5.8920 C.2    17  SER17       0.2643
     17  O         -1.6440   10.1000    5.7730 O.2    17  SER17      -0.2714
     18  CB         0.0170    9.7220    8.2440 C.3    17  SER17       0.2130
     19  OG        -0.5870   10.9670    8.5620 O.3    17  SER17      -0.2179
     20  N         -0.6550    8.1580    5.2130 N.am   18  LEU18      -0.1963
     21  CA        -1.7250    7.5150    4.5150 C.3    18  LEU18       0.1728
     22  C         -2.7360    7.0760    5.5180 C.2    18  LEU18       0.2617
     23  O         -3.9240    7.3880    5.4700 O.2    18  LEU18      -0.2715
     24  CB        -1.1690    6.2390    3.8600 C.3    18  LEU18       0.0311
     25  CG        -0.0170    6.4640    2.8660 C.3    18  LEU18       0.0022
     26  CD1        0.6940    5.1260    2.5990 C.3    18  LEU18       0.0001
     27  CD2       -0.5150    7.1610    1.5890 C.3    18  LEU18       0.0001
     28  N         -2.2360    6.3220    6.5130 N.am   19  GLY19      -0.1940
     29  CA        -3.0070    5.8920    7.6380 C.3    19  GLY19       0.2014
     30  C         -2.7990    4.4460    7.9350 C.2    19  GLY19       0.2639
     31  O         -3.6890    3.8240    8.5110 O.2    19  GLY19      -0.2714
     32  N         -1.6300    3.8910    7.5710 N.am   20  ILE20      -0.1963
     33  CA        -1.3510    2.5360    7.9330 C.3    20  ILE20       0.1727
     34  C         -0.0500    2.4280    8.6530 C.2    20  ILE20       0.2617
     35  O          0.9420    3.0710    8.3170 O.2    20  ILE20      -0.2715
     36  CB        -1.4870    1.5600    6.8030 C.3    20  ILE20       0.0290
     37  CG1       -0.4940    1.8520    5.6660 C.3    20  ILE20       0.0022
     38  CG2       -2.9450    1.5870    6.3150 C.3    20  ILE20       0.0023
     39  CD1       -0.6700    1.0530    4.3750 C.3    20  ILE20       0.0001
     40  N         -0.0640    1.6070    9.7190 N.am   21  SER21      -0.1936
     41  CA         1.0840    1.0860   10.3930 C.3    21  SER21       0.2055
     42  C          1.5630   -0.1780    9.7660 C.2    21  SER21       0.2643
     43  O          0.8520   -1.1810    9.7270 O.2    21  SER21      -0.2714
     44  CB         0.8890    0.7070   11.8710 C.3    21  SER21       0.2130
     45  OG         0.7020    1.8850   12.6420 O.3    21  SER21      -0.2179
     46  N          2.8180   -0.1690    9.2840 N.am   22  VAL22      -0.1963
     47  CA         3.3630   -1.2760    8.5630 C.3    22  VAL22       0.1727
     48  C          3.9510   -2.3800    9.3720 C.2    22  VAL22       0.2617
     49  O          4.6230   -2.1750   10.3810 O.2    22  VAL22      -0.2715
     50  CB         4.3510   -0.7940    7.5440 C.3    22  VAL22       0.0290
     51  CG1        3.5740    0.0000    6.4800 C.3    22  VAL22       0.0023
     52  CG2        5.4590    0.0380    8.2110 C.3    22  VAL22       0.0023
     53  N          3.7270   -3.6370    8.9480 N.am   23  THR23      -0.1937
     54  CA         4.3000   -4.8310    9.4880 C.3    23  THR23       0.2028
     55  C          4.6470   -5.7580    8.3740 C.2    23  THR23       0.2642
     56  O          4.4200   -5.4720    7.1990 O.2    23  THR23      -0.2714
     57  CB         3.4190   -5.5000   10.5020 C.3    23  THR23       0.1808
     58  OG1        4.0490   -6.5700   11.1910 O.3    23  THR23      -0.2208
     59  CG2        2.1290   -6.0410    9.8650 C.3    23  THR23       0.0379
     60  N          5.2340   -6.9260    8.6900 N.am   24  GLY24      -0.1954
     61  CA         5.6290   -7.9320    7.7530 C.3    24  GLY24       0.1869
     62  C          6.9820   -7.6940    7.1750 C.2    24  GLY24       0.2309
     63  O          7.9850   -7.6960    7.8860 O.2    24  GLY24      -0.2863
     64  N         10.6820  -10.7230    7.3810 N.3    28  THR28      -0.1218
     65  CA         9.7930  -11.6710    7.9760 C.3    28  THR28       0.1862
     66  C          9.4460  -12.6430    6.9020 C.2    28  THR28       0.2287
     67  O          9.5900  -12.3530    5.7150 O.2    28  THR28      -0.2866
     68  CB         8.5600  -10.9960    8.5010 C.3    28  THR28       0.1770
     69  OG1        8.9150   -9.9270    9.3650 O.3    28  THR28      -0.2211
     70  CG2        7.6680  -11.9310    9.3340 C.3    28  THR28       0.0375
     71  N         -0.6860   -3.6120    9.8960 N.3    38  LYS38      -0.1231
     72  CA        -0.9590   -4.0890   11.2160 C.3    38  LYS38       0.1693
     73  C         -2.1220   -3.3700   11.8090 C.2    38  LYS38       0.2591
     74  O         -2.9670   -3.9540   12.4850 O.2    38  LYS38      -0.2718
     75  CB         0.2560   -3.9170   12.1420 C.3    38  LYS38       0.0285
     76  CG         0.5510   -5.0600   13.1140 C.3    38  LYS38       0.0035
     77  CD        -0.4630   -5.3320   14.2270 C.3    38  LYS38       0.0206
     78  CE        -1.3010   -6.5930   13.9980 C.3    38  LYS38       0.1093
     79  NZ        -2.2790   -6.8130   15.0860 N.3    38  LYS38      -0.1314
     80  N         -2.1950   -2.0430   11.6030 N.am   39  ALA39      -0.1980
     81  CA        -3.1950   -1.2130   12.1970 C.3    39  ALA39       0.1597
     82  C         -3.6080   -0.1230   11.2690 C.2    39  ALA39       0.2287
     83  O         -2.7800    0.5100   10.6160 O.2    39  ALA39      -0.2864
     84  CB        -2.6900   -0.6310   13.5290 C.3    39  ALA39       0.0319
     85  N         -5.6570    3.5150   10.8420 N.3    41  ILE41      -0.1245
     86  CA        -6.0720    4.6920   11.5400 C.3    41  ILE41       0.1561
     87  C         -7.5350    4.9070   11.3590 C.2    41  ILE41       0.2260
     88  O         -7.9710    4.9080   10.2090 O.2    41  ILE41      -0.2867
     89  CB        -5.3320    5.8920   11.0250 C.3    41  ILE41       0.0252
     90  CG1       -3.8440    5.7410   11.3850 C.3    41  ILE41       0.0019
     91  CG2       -5.8950    7.2100   11.5810 C.3    41  ILE41       0.0019
     92  CD1       -3.0340    6.9610   10.9490 C.3    41  ILE41       0.0001
     93  N         10.9210   -3.6020    6.6610 N.3    71  HIS71      -0.1241
     94  CA        10.2250   -2.5950    7.4020 C.3    71  HIS71       0.1621
     95  C         10.6460   -1.2120    7.0400 C.2    71  HIS71       0.2264
     96  O          9.8130   -0.3650    6.7200 O.2    71  HIS71      -0.2867
     97  CB        10.3690   -2.8140    8.9180 C.3    71  HIS71       0.0745
     98  CG        10.0650   -1.6290    9.7870 C.ar   71  HIS71       0.0817
     99  ND1       11.0150   -1.0260   10.5680 N.ar   71  HIS71      -0.2268
    100  CD2        8.9410   -0.8720    9.8900 C.ar   71  HIS71       0.1154
    101  CE1       10.5010    0.0550   11.1220 C.ar   71  HIS71       0.1986
    102  NE2        9.2450    0.1660   10.7310 N.ar   71  HIS71      -0.2212
    103  N          8.6430    1.5930    4.5130 N.3    75  VAL75      -0.1245
    104  CA         8.3330    2.9360    4.8960 C.3    75  VAL75       0.1561
    105  C          8.8410    3.8940    3.8740 C.2    75  VAL75       0.2260
    106  O          8.0560    4.6650    3.3220 O.2    75  VAL75      -0.2867
    107  CB         8.8480    3.3530    6.2410 C.3    75  VAL75       0.0252
    108  CG1        8.5820    4.8410    6.5250 C.3    75  VAL75       0.0019
    109  CG2        8.1670    2.5010    7.3260 C.3    75  VAL75       0.0019
    110  N          6.7280    3.9920    0.7330 N.3    78  LEU78      -0.1231
    111  CA         5.4720    4.6570    0.8940 C.3    78  LEU78       0.1693
    112  C          5.5880    6.1110    1.2000 C.2    78  LEU78       0.2591
    113  O          4.7920    6.9410    0.7650 O.2    78  LEU78      -0.2718
    114  CB         4.7560    4.0750    2.1250 C.3    78  LEU78       0.0284
    115  CG         4.3340    2.5990    2.0280 C.3    78  LEU78       0.0019
    116  CD1        4.2450    1.9460    3.4170 C.3    78  LEU78       0.0001
    117  CD2        2.9890    2.4380    1.2980 C.3    78  LEU78       0.0001
    118  N          6.5920    6.4750    2.0170 N.am   79  ARG79      -0.1980
    119  CA         6.7540    7.7440    2.6570 C.3    79  ARG79       0.1597
    120  C          7.3860    8.7710    1.7820 C.2    79  ARG79       0.2287
    121  O          6.9050    9.9020    1.7320 O.2    79  ARG79      -0.2864
    122  CB         7.5510    7.5000    3.9500 C.3    79  ARG79       0.0334
    123  CG         7.6920    8.7110    4.8740 C.3    79  ARG79       0.0492
    124  CD         9.0730    9.3450    4.7010 C.3    79  ARG79       0.2205
    125  NE         9.0210   10.6740    5.3720 N.pl3  79  ARG79      -0.0865
    126  CZ        10.1040   11.3790    5.8130 C.cat  79  ARG79       0.5346
    127  NH1       11.3640   10.8590    5.8710 N.pl3  79  ARG79       0.1354
    128  NH2        9.9460   12.6690    6.2310 N.pl3  79  ARG79       0.1354
@<TRIPOS>BOND
     1   110   111    1
     2   113   112    2
     3   111   112    1
     4   111   114    1
     5     1     2    1
     6   112   118   am
     7   117   115    1
     8     6     7    1
     9     6     5    1
    10    27    25    1
    11   121   120    2
    12   120   119    1
    13     7     8    1
    14   118   119    1
    15   115   114    1
    16   115   116    1
    17     8     9    1
    18     2     5    1
    19     2     3    1
    20     4     3    2
    21    26    25    1
    22   119   122    1
    23    25    24    1
    24   106   105    2
    25    24    21    1
    26   105   104    1
    27   122   123    1
    28    39    37    1
    29   103   104    1
    30    21    20    1
    31    21    22    1
    32   124   123    1
    33   124   125    1
    34   104   107    1
    35    20    16   am
    36   125   126    2
    37    23    22    2
    38    22    28   am
    39    37    36    1
    40    67    66    2
    41    17    16    2
    42   126   127    1
    43   126   128    1
    44    10    11    1
    45    16    15    1
    46    11    12    1
    47    14    12   am
    48    14    15    1
    49   107   108    1
    50   107   109    1
    51    38    36    1
    52    51    50    1
    53    28    29    1
    54    93    94    1
    55    96    95    2
    56    12    13    2
    57    15    18    1
    58    36    33    1
    59    66    65    1
    60    95    94    1
    61    62    61    1
    62    62    63    2
    63    56    55    2
    64    64    65    1
    65    94    97    1
    66    50    52    1
    67    50    47    1
    68    32    33    1
    69    32    30   am
    70    29    30    1
    71    61    60    1
    72    33    34    1
    73    30    31    2
    74    65    68    1
    75    18    19    1
    76    35    34    2
    77    55    60   am
    78    55    54    1
    79    68    70    1
    80    68    69    1
    81    47    46    1
    82    47    48    1
    83    34    40   am
    84    97    98    1
    85    53    48   am
    86    53    54    1
    87    46    42   am
    88    48    49    2
    89    54    57    1
    90    40    41    1
    91    43    42    2
    92    42    41    1
    93    98   100   ar
    94    98    99   ar
    95    59    57    1
    96   100   102   ar
    97    71    72    1
    98    88    87    2
    99    41    44    1
   100    57    58    1
   101    99   101   ar
   102    83    82    2
   103   102   101   ar
   104    85    86    1
   105    92    90    1
   106    89    90    1
   107    89    86    1
   108    89    91    1
   109    72    73    1
   110    72    75    1
   111    82    81    1
   112    87    86    1
   113    80    73   am
   114    80    81    1
   115    73    74    2
   116    44    45    1
   117    75    76    1
   118    81    84    1
   119    76    77    1
   120    78    77    1
   121    78    79    1
