@<TRIPOS>MOLECULE
tmp/1vj9A00.pdb
 219 214 0 0 0
SMALL
GASTEIGER

@<TRIPOS>ATOM
      1  N         22.5870    9.2620   36.8370 N.3    46  HIS46      -0.1241
      2  CA        22.9260   10.4270   36.0290 C.3    46  HIS46       0.1621
      3  C         22.0320   10.5960   34.8100 C.2    46  HIS46       0.2264
      4  O         22.0190   11.6570   34.1890 O.2    46  HIS46      -0.2867
      5  CB        24.4030   10.4080   35.6120 C.3    46  HIS46       0.0745
      6  CG        24.6900    9.6420   34.3550 C.ar   46  HIS46       0.0817
      7  ND1       25.3100    8.4090   34.3590 N.ar   46  HIS46      -0.2268
      8  CD2       24.5040    9.9640   33.0520 C.ar   46  HIS46       0.1154
      9  CE1       25.4990    8.0070   33.1150 C.ar   46  HIS46       0.1986
     10  NE2       25.0190    8.9310   32.3020 N.ar   46  HIS46      -0.2212
     11  N         18.9730   12.6720   36.7290 N.3    49  ILE49      -0.1231
     12  CA        19.2210   13.7280   37.6960 C.3    49  ILE49       0.1692
     13  C         18.7100   15.1120   37.2790 C.2    49  ILE49       0.2592
     14  O         18.2260   15.8680   38.1240 O.2    49  ILE49      -0.2718
     15  CB        20.7360   13.7940   38.0600 C.3    49  ILE49       0.0266
     16  CG1       20.9340   14.6420   39.3210 C.3    49  ILE49       0.0019
     17  CG2       21.5400   14.3740   36.9020 C.3    49  ILE49       0.0020
     18  CD1       20.2130   14.1190   40.5350 C.3    49  ILE49       0.0001
     19  N         18.7890   15.4440   35.9920 N.am   50  ASP50      -0.1974
     20  CA        18.3210   16.7500   35.5340 C.3    50  ASP50       0.1709
     21  C         16.8160   16.8540   35.2780 C.2    50  ASP50       0.2293
     22  O         16.2940   17.9510   35.0990 O.2    50  ASP50      -0.2864
     23  CB        19.0810   17.1790   34.2760 C.3    50  ASP50       0.1436
     24  CG        20.5370   17.5000   34.5580 C.2    50  ASP50       0.3671
     25  OD1       20.8040   18.2920   35.4880 O.co2  50  ASP50      -0.2456
     26  OD2       21.4150   16.9670   33.8460 O.co2  50  ASP50      -0.2456
     27  N         24.6060   10.5120   44.9170 N.3    87  TYR87      -0.1241
     28  CA        25.1550   10.5880   43.5780 C.3    87  TYR87       0.1605
     29  C         25.8550   11.9290   43.4280 C.2    87  TYR87       0.2264
     30  O         25.3740   12.9510   43.9180 O.2    87  TYR87      -0.2867
     31  CB        24.0490   10.5000   42.5200 C.3    87  TYR87       0.0534
     32  CG        24.5270   10.9320   41.1520 C.ar   87  TYR87      -0.0201
     33  CD1       25.2690   10.0720   40.3450 C.ar   87  TYR87      -0.0009
     34  CD2       24.3240   12.2320   40.7080 C.ar   87  TYR87      -0.0009
     35  CE1       25.8000   10.5040   39.1360 C.ar   87  TYR87       0.0417
     36  CE2       24.8540   12.6720   39.5030 C.ar   87  TYR87       0.0417
     37  CZ        25.5920   11.8080   38.7260 C.ar   87  TYR87       0.1957
     38  OH        26.1480   12.2600   37.5480 O.3    87  TYR87      -0.2866
     39  N         29.0220   13.9540   40.6290 N.3    89  ALA89      -0.1231
     40  CA        29.8940   13.8260   39.4740 C.3    89  ALA89       0.1694
     41  C         31.0970   14.7340   39.6430 C.2    89  ALA89       0.2592
     42  O         30.9510   15.9150   39.9480 O.2    89  ALA89      -0.2718
     43  CB        29.1340   14.1880   38.2020 C.3    89  ALA89       0.0304
     44  N         32.2860   14.1710   39.4630 N.am   90  ASP90      -0.1960
     45  CA        33.5160   14.9310   39.5750 C.3    90  ASP90       0.1840
     46  C         34.0500   15.2190   38.1750 C.2    90  ASP90       0.2623
     47  O         33.2870   15.2280   37.2100 O.2    90  ASP90      -0.2715
     48  CB        34.5570   14.1520   40.3900 C.3    90  ASP90       0.1450
     49  CG        34.3430   14.2850   41.8880 C.2    90  ASP90       0.3671
     50  OD1       33.4340   13.6310   42.4420 O.co2  90  ASP90      -0.2456
     51  OD2       35.0860   15.0650   42.5150 O.co2  90  ASP90      -0.2456
     52  N         35.3540   15.4680   38.0750 N.am   91  THR91      -0.1937
     53  CA        35.9960   15.7480   36.7940 C.3    91  THR91       0.2028
     54  C         35.6140   14.6520   35.8060 C.2    91  THR91       0.2642
     55  O         35.0570   14.9260   34.7440 O.2    91  THR91      -0.2714
     56  CB        37.5410   15.7720   36.9400 C.3    91  THR91       0.1808
     57  OG1       37.9230   16.8480   37.8050 O.3    91  THR91      -0.2208
     58  CG2       38.2140   15.9470   35.5860 C.3    91  THR91       0.0379
     59  N         35.9050   13.4090   36.1770 N.am   92  LEU92      -0.1977
     60  CA        35.5960   12.2660   35.3320 C.3    92  LEU92       0.1596
     61  C         34.6190   11.3070   36.0040 C.2    92  LEU92       0.2287
     62  O         33.6020   10.9360   35.4250 O.2    92  LEU92      -0.2864
     63  CB        36.8760   11.4970   34.9880 C.3    92  LEU92       0.0297
     64  CG        37.9160   12.1330   34.0580 C.3    92  LEU92       0.0022
     65  CD1       39.1150   11.1900   33.9330 C.3    92  LEU92       0.0001
     66  CD2       37.2950   12.3980   32.6860 C.3    92  LEU92       0.0001
     67  N         31.8070    9.3470   38.2380 N.3    94  HIS94      -0.1241
     68  CA        30.4090    9.5080   38.6030 C.3    94  HIS94       0.1621
     69  C         30.2510    8.5300   39.7540 C.2    94  HIS94       0.2264
     70  O         30.4420    7.3320   39.5810 O.2    94  HIS94      -0.2867
     71  CB        29.4960    9.1270   37.4370 C.3    94  HIS94       0.0745
     72  CG        29.4850   10.1340   36.3300 C.ar   94  HIS94       0.0817
     73  ND1       28.4800   11.0650   36.1800 N.ar   94  HIS94      -0.2268
     74  CD2       30.3880   10.3960   35.3560 C.ar   94  HIS94       0.1154
     75  CE1       28.7660   11.8590   35.1640 C.ar   94  HIS94       0.1986
     76  NE2       29.9190   11.4750   34.6470 N.ar   94  HIS94      -0.2212
     77  N         26.0750    5.3410   20.6720 N.3   142  LYS142     -0.1245
     78  CA        26.8830    5.6830   19.5130 C.3   142  LYS142      0.1561
     79  C         27.8260    4.5850   19.0520 C.2   142  LYS142      0.2260
     80  O         28.3670    3.8210   19.8520 O.2   142  LYS142     -0.2867
     81  CB        27.6790    6.9590   19.7800 C.3   142  LYS142      0.0271
     82  CG        26.8180    8.2130   19.8400 C.3   142  LYS142      0.0035
     83  CD        27.6710    9.4380   20.0960 C.3   142  LYS142      0.0206
     84  CE        26.8050   10.6780   20.2540 C.3   142  LYS142      0.1093
     85  NZ        27.6280   11.8790   20.5650 N.3   142  LYS142     -0.1314
     86  N         32.4650    8.0260   18.2450 N.3   145  SER145     -0.1217
     87  CA        32.4150    9.2890   18.9860 C.3   145  SER145      0.1889
     88  C         31.9230   10.4800   18.1790 C.2   145  SER145      0.2288
     89  O         31.3250   11.4050   18.7300 O.2   145  SER145     -0.2866
     90  CB        33.7930    9.6330   19.5660 C.3   145  SER145      0.2089
     91  OG        34.0320    8.9240   20.7630 O.3   145  SER145     -0.2183
     92  N         34.0450   -0.9680   22.5560 N.3   192  ASP192     -0.1225
     93  CA        33.7430   -0.3480   23.8420 C.3   192  ASP192      0.1805
     94  C         32.3280    0.2270   23.8830 C.2   192  ASP192      0.2598
     95  O         31.6640    0.3480   22.8500 O.2   192  ASP192     -0.2718
     96  CB        34.7670    0.7620   24.1070 C.3   192  ASP192      0.1424
     97  CG        34.6920    1.3210   25.5210 C.2   192  ASP192      0.3668
     98  OD1       34.0700    0.6900   26.4050 O.co2 192  ASP192     -0.2456
     99  OD2       35.2770    2.3990   25.7520 O.co2 192  ASP192     -0.2456
    100  N         31.8530    0.5450   25.0850 N.am  193  SER193     -0.1938
    101  CA        30.5390    1.1540   25.2320 C.3   193  SER193      0.2055
    102  C         30.7990    2.6430   25.0100 C.2   193  SER193      0.2643
    103  O         31.9510    3.0930   25.1000 O.2   193  SER193     -0.2714
    104  CB        29.9650    0.8980   26.6300 C.3   193  SER193      0.2130
    105  OG        30.8530    1.2980   27.6560 O.3   193  SER193     -0.2179
    106  N         29.7480    3.4070   24.7190 N.am  194  CYS194     -0.1953
    107  CA        29.9110    4.8290   24.4480 C.3   194  CYS194      0.1843
    108  C         28.6910    5.6380   24.9030 C.2   194  CYS194      0.2625
    109  O         27.7890    5.1090   25.5560 O.2   194  CYS194     -0.2714
    110  CB        30.1490    5.0140   22.9380 C.3   194  CYS194      0.0997
    111  SG        30.8410    6.6220   22.4110 S.3   194  CYS194     -0.0797
    112  N         28.6720    6.9220   24.5600 N.am  195  GLN195     -0.1963
    113  CA        27.5580    7.7970   24.9210 C.3   195  GLN195      0.1733
    114  C         26.2340    7.2080   24.4070 C.2   195  GLN195      0.2616
    115  O         26.1210    6.8290   23.2380 O.2   195  GLN195     -0.2715
    116  CB        27.7880    9.1880   24.3210 C.3   195  GLN195      0.0408
    117  CG        26.7310   10.2080   24.6670 C.3   195  GLN195      0.0908
    118  CD        26.8230   11.4490   23.8000 C.2   195  GLN195      0.2608
    119  OE1       27.9050   12.0230   23.6300 O.2   195  GLN195     -0.2717
    120  NE2       25.6860   11.8740   23.2460 N.am  195  GLN195     -0.0878
    121  N         25.2350    7.1450   25.2810 N.am  196  GLY196     -0.1955
    122  CA        23.9500    6.5790   24.9070 C.3   196  GLY196      0.1869
    123  C         23.7720    5.1570   25.4430 C.2   196  GLY196      0.2309
    124  O         22.6530    4.6320   25.4770 O.2   196  GLY196     -0.2863
    125  N         24.6930    4.3810   28.5310 N.3   198  SER198     -0.1217
    126  CA        24.5110    4.5690   29.9760 C.3   198  SER198      0.1889
    127  C         23.2810    3.8820   30.5570 C.2   198  SER198      0.2288
    128  O         22.2100    3.8820   29.9520 O.2   198  SER198     -0.2866
    129  CB        24.4130    6.0610   30.3180 C.3   198  SER198      0.2089
    130  OG        25.6280    6.7420   30.0790 O.3   198  SER198     -0.2183
    131  N         26.5870    0.5340   32.9190 N.3   216  VAL216     -0.1231
    132  CA        27.3930    1.4790   32.1440 C.3   216  VAL216      0.1692
    133  C         27.2520    2.8840   32.7140 C.2   216  VAL216      0.2593
    134  O         26.1620    3.4520   32.7180 O.2   216  VAL216     -0.2718
    135  CB        26.9900    1.5140   30.6430 C.3   216  VAL216      0.0266
    136  CG1       27.8750    2.5130   29.9040 C.3   216  VAL216      0.0020
    137  CG2       27.1650    0.1420   30.0130 C.3   216  VAL216      0.0020
    138  N         28.3660    3.4440   33.1800 N.am  217  SER217     -0.1938
    139  CA        28.3610    4.7670   33.7930 C.3   217  SER217      0.2055
    140  C         29.2210    5.8310   33.1010 C.2   217  SER217      0.2643
    141  O         28.6920    6.7930   32.5520 O.2   217  SER217     -0.2714
    142  CB        28.7820    4.6380   35.2680 C.3   217  SER217      0.2130
    143  OG        28.7770    5.8900   35.9350 O.3   217  SER217     -0.2179
    144  N         30.5410    5.6840   33.1450 N.am  218  TRP218     -0.1959
    145  CA        31.4090    6.6830   32.5240 C.3   218  TRP218      0.1771
    146  C         32.6920    6.1560   31.9000 C.2   218  TRP218      0.2620
    147  O         33.0210    4.9750   32.0030 O.2   218  TRP218     -0.2715
    148  CB        31.7740    7.7810   33.5290 C.3   218  TRP218      0.0590
    149  CG        32.4990    7.3060   34.7460 C.ar  218  TRP218      0.0006
    150  CD1       31.9500    6.7200   35.8510 C.ar  218  TRP218      0.0946
    151  CD2       33.9090    7.3950   34.9970 C.ar  218  TRP218      0.0152
    152  NE1       32.9280    6.4430   36.7770 N.ar  218  TRP218     -0.2442
    153  CE2       34.1400    6.8450   36.2800 C.ar  218  TRP218      0.0810
    154  CE3       34.9990    7.8830   34.2630 C.ar  218  TRP218      0.0012
    155  CZ2       35.4170    6.7720   36.8470 C.ar  218  TRP218      0.0191
    156  CZ3       36.2690    7.8090   34.8250 C.ar  218  TRP218      0.0001
    157  CH2       36.4660    7.2570   36.1080 C.ar  218  TRP218      0.0015
    158  N         33.4120    7.0660   31.2540 N.am  219  GLY219     -0.1940
    159  CA        34.6670    6.7370   30.6040 C.3   219  GLY219      0.2014
    160  C         35.1510    7.9400   29.8140 C.2   219  GLY219      0.2639
    161  O         34.3490    8.7630   29.3690 O.2   219  GLY219     -0.2714
    162  N         36.4630    8.0580   29.6530 N.am  220  ARG220     -0.1963
    163  CA        37.0430    9.1630   28.8960 C.3   220  ARG220      0.1729
    164  C         37.0140    8.7800   27.4130 C.2   220  ARG220      0.2617
    165  O         37.6850    7.8360   26.9880 O.2   220  ARG220     -0.2715
    166  CB        38.4800    9.4190   29.3740 C.3   220  ARG220      0.0348
    167  CG        39.2520   10.4200   28.5440 C.3   220  ARG220      0.0492
    168  CD        38.5560   11.7700   28.4690 C.3   220  ARG220      0.2205
    169  NE        38.6320   12.3120   27.1150 N.pl3 220  ARG220     -0.0865
    170  CZ        39.7710   12.5040   26.4510 C.cat 220  ARG220      0.5346
    171  NH1       40.9370   12.2020   27.0210 N.pl3 220  ARG220      0.1354
    172  NH2       39.7500   12.9850   25.2130 N.pl3 220  ARG220      0.1354
    173  N         36.2240    9.5050   26.6300 N.am  221  GLY221     -0.1940
    174  CA        36.1190    9.1920   25.2180 C.3   221  GLY221      0.2014
    175  C         35.4380    7.8420   25.0470 C.2   221  GLY221      0.2639
    176  O         34.7220    7.3910   25.9440 O.2   221  GLY221     -0.2714
    177  N         35.6610    7.1970   23.9020 N.am  222  CYS222     -0.1953
    178  CA        35.0780    5.8840   23.5980 C.3   222  CYS222      0.1843
    179  C         36.0930    5.0140   22.8650 C.2   222  CYS222      0.2625
    180  O         36.5070    5.3300   21.7550 O.2   222  CYS222     -0.2714
    181  CB        33.8240    6.0380   22.7320 C.3   222  CYS222      0.0997
    182  SG        32.4640    6.8590   23.6050 S.3   222  CYS222     -0.0797
    183  N         36.4970    3.9190   23.4960 N.am  223  ALA223     -0.1977
    184  CA        37.4660    3.0150   22.8920 C.3   223  ALA223      0.1597
    185  C         38.8340    3.6720   22.6920 C.2   223  ALA223      0.2287
    186  O         39.5010    3.4490   21.6850 O.2   223  ALA223     -0.2864
    187  CB        36.9330    2.4890   21.5660 C.3   223  ALA223      0.0319
    188  N         41.9980    3.9140   28.3900 N.3   227  LYS227     -0.1245
    189  CA        40.8530    4.6060   28.9620 C.3   227  LYS227      0.1561
    190  C         39.6600    3.6480   28.9290 C.2   227  LYS227      0.2260
    191  O         38.7610    3.7720   28.0930 O.2   227  LYS227     -0.2867
    192  CB        40.5470    5.8810   28.1680 C.3   227  LYS227      0.0271
    193  CG        41.6970    6.8610   28.1250 C.3   227  LYS227      0.0035
    194  CD        42.1710    7.2330   29.5190 C.3   227  LYS227      0.0206
    195  CE        43.5370    7.8970   29.4460 C.3   227  LYS227      0.1093
    196  NZ        44.0670    8.2910   30.7700 N.3   227  LYS227     -0.1314
    197  N         36.1670    1.4780   30.1090 N.3   229  GLY229     -0.1210
    198  CA        34.8520    1.9310   30.4790 C.3   229  GLY229      0.1956
    199  C         34.7470    1.6430   31.9620 C.2   229  GLY229      0.2612
    200  O         35.3510    0.6840   32.4560 O.2   229  GLY229     -0.2717
    201  N         34.0000    2.4710   32.6820 N.am  230  VAL230     -0.1965
    202  CA        33.8330    2.2780   34.1160 C.3   230  VAL230      0.1727
    203  C         32.3650    1.9880   34.4070 C.2   230  VAL230      0.2616
    204  O         31.4730    2.6670   33.8920 O.2   230  VAL230     -0.2715
    205  CB        34.2890    3.5170   34.8970 C.3   230  VAL230      0.0290
    206  CG1       34.1600    3.2650   36.3820 C.3   230  VAL230      0.0023
    207  CG2       35.7290    3.8600   34.5250 C.3   230  VAL230      0.0023
    208  N         32.1260    0.9790   35.2370 N.am  231  TYR231     -0.1974
    209  CA        30.7740    0.5590   35.5680 C.3   231  TYR231      0.1639
    210  C         30.4770    0.5510   37.0540 C.2   231  TYR231      0.2290
    211  O         31.3490    0.2720   37.8780 O.2   231  TYR231     -0.2864
    212  CB        30.5320   -0.8480   35.0140 C.3   231  TYR231      0.0560
    213  CG        30.8270   -0.9760   33.5370 C.ar  231  TYR231     -0.0198
    214  CD1       32.1440   -0.9510   33.0490 C.ar  231  TYR231     -0.0009
    215  CD2       29.7820   -1.0690   32.6170 C.ar  231  TYR231     -0.0009
    216  CE1       32.3970   -1.0120   31.6650 C.ar  231  TYR231      0.0417
    217  CE2       30.0210   -1.1270   31.2470 C.ar  231  TYR231      0.0417
    218  CZ        31.3180   -1.0980   30.7740 C.ar  231  TYR231      0.1957
    219  OH        31.5050   -1.1220   29.4110 O.3   231  TYR231     -0.2866
@<TRIPOS>BOND
     1    88    89    2
     2    88    87    1
     3    86    87    1
     4    87    90    1
     5    79    78    1
     6    79    80    2
     7    78    81    1
     8    78    77    1
     9    90    91    1
    10    81    82    1
    11    82    83    1
    12    83    84    1
    13    84    85    1
    14   187   184    1
    15   186   185    2
    16   180   179    2
    17   111   110    1
    18   111   182    1
    19    92    93    1
    20   185   184    1
    21   181   178    1
    22   181   182    1
    23    95    94    2
    24   179   183   am
    25   179   178    1
    26   184   183    1
    27   110   107    1
    28   115   114    2
    29   120   118   am
    30   178   177    1
    31   119   118    2
    32   118   117    1
    33    93    94    1
    34    93    96    1
    35    94   100   am
    36   177   175   am
    37    96    97    1
    38   116   117    1
    39   116   113    1
    40   114   113    1
    41   114   121   am
    42   107   106    1
    43   107   108    1
    44   112   108   am
    45   112   113    1
    46   106   102   am
    47   108   109    2
    48   122   121    1
    49   122   123    1
    50   102   103    2
    51   102   101    1
    52   175   174    1
    53   175   176    2
    54   100   101    1
    55   172   170    1
    56   174   173    1
    57   101   104    1
    58   123   124    2
    59    97    99   ar
    60    97    98   ar
    61   170   171    1
    62   170   169    2
    63   104   105    1
    64   173   164   am
    65   165   164    2
    66   169   168    1
    67   164   163    1
    68   191   190    2
    69   193   192    1
    70   193   194    1
    71   192   189    1
    72   188   189    1
    73   168   167    1
    74   125   126    1
    75   167   166    1
    76   163   166    1
    77   163   162    1
    78   190   189    1
    79   161   160    2
    80   219   218    1
    81   195   194    1
    82   195   196    1
    83   162   160   am
    84   160   159    1
    85   136   135    1
    86   128   127    2
    87   126   129    1
    88   126   127    1
    89   137   135    1
    90   130   129    1
    91   197   198    1
    92   198   199    1
    93   159   158    1
    94   135   132    1
    95   218   217   ar
    96   218   216   ar
    97   217   215   ar
    98   158   146   am
    99   216   214   ar
   100   146   147    2
   101   146   145    1
   102   199   200    2
   103   199   201   am
   104   132   133    1
   105   132   131    1
   106    10     8   ar
   107    10     9   ar
   108   145   144    1
   109   145   148    1
   110   141   140    2
   111   215   213   ar
   112   201   202    1
   113    66    64    1
   114   133   134    2
   115   133   138   am
   116   214   213   ar
   117     8     6   ar
   118   140   144   am
   119   140   139    1
   120     9     7   ar
   121   138   139    1
   122   148   149    1
   123   213   212    1
   124   139   142    1
   125    26    24   ar
   126   204   203    2
   127    65    64    1
   128    64    63    1
   129   202   203    1
   130   202   205    1
   131     4     3    2
   132   154   156   ar
   133   154   151   ar
   134    23    24    1
   135    23    20    1
   136     6     7   ar
   137     6     5    1
   138   203   208   am
   139   207   205    1
   140    24    25   ar
   141    76    75   ar
   142    76    74   ar
   143    55    54    2
   144   149   151   ar
   145   149   150   ar
   146     3     2    1
   147   156   157   ar
   148   205   206    1
   149    63    60    1
   150   151   153   ar
   151   212   209    1
   152    22    21    2
   153    75    73   ar
   154   208   209    1
   155   142   143    1
   156    21    20    1
   157    60    61    1
   158    60    59    1
   159    74    72   ar
   160    62    61    2
   161    20    19    1
   162   209   210    1
   163    58    56    1
   164     5     2    1
   165    54    59   am
   166    54    53    1
   167   150   152   ar
   168    19    13   am
   169     2     1    1
   170   157   155   ar
   171    73    72   ar
   172   153   152   ar
   173   153   155   ar
   174    72    71    1
   175    11    12    1
   176    53    56    1
   177    53    52    1
   178    17    15    1
   179    56    57    1
   180   210   211    2
   181    47    46    2
   182    13    12    1
   183    13    14    2
   184    71    68    1
   185    38    37    1
   186    12    15    1
   187    15    16    1
   188    52    46   am
   189    46    45    1
   190    43    40    1
   191    67    68    1
   192    68    69    1
   193    37    35   ar
   194    37    36   ar
   195    35    33   ar
   196    16    18    1
   197    44    45    1
   198    44    41   am
   199    40    41    1
   200    40    39    1
   201    36    34   ar
   202    45    48    1
   203    70    69    2
   204    41    42    2
   205    33    32   ar
   206    48    49    1
   207    34    32   ar
   208    32    31    1
   209    49    50   ar
   210    49    51   ar
   211    31    28    1
   212    29    28    1
   213    29    30    2
   214    28    27    1
