@<TRIPOS>MOLECULE
tmp/1vjiA00.pdb
 216 214 0 0 0
SMALL
GASTEIGER

@<TRIPOS>ATOM
      1  N         16.9720   46.6360   53.6510 N.3    22  ALA22      -0.1231
      2  CA        16.7480   45.6520   54.6370 C.3    22  ALA22       0.1679
      3  C         15.2610   45.2120   54.5950 C.2    22  ALA22       0.2434
      4  O         14.3690   45.9880   54.2560 O.2    22  ALA22      -0.2733
      5  CB        17.0620   46.2040   56.0220 C.3    22  ALA22       0.0304
      6  N         15.0100   44.0070   55.0770 N.am   23  PRO23      -0.2718
      7  CA        13.6370   43.5590   55.3150 C.3    23  PRO23       0.1535
      8  C         12.9840   44.3910   56.3950 C.2    23  PRO23       0.2598
      9  O         13.5200   44.5650   57.4950 O.2    23  PRO23      -0.2715
     10  CB        13.8170   42.0270   55.7230 C.3    23  PRO23       0.0310
     11  CG        15.2850   41.9670   56.3140 C.3    23  PRO23       0.0237
     12  CD        16.0190   43.0220   55.5120 C.3    23  PRO23       0.0939
     13  N         11.8060   44.9050   56.0710 N.am   24  LEU24      -0.1964
     14  CA        11.1040   45.8230   56.8940 C.3    24  LEU24       0.1728
     15  C          9.6000   45.5170   56.9680 C.2    24  LEU24       0.2617
     16  O          8.8310   45.8590   56.0520 O.2    24  LEU24      -0.2715
     17  CB        11.3410   47.2690   56.3580 C.3    24  LEU24       0.0311
     18  CG        12.7390   47.9200   56.3270 C.3    24  LEU24       0.0022
     19  CD1       12.8210   49.2050   55.4240 C.3    24  LEU24       0.0001
     20  CD2       13.2380   48.3310   57.7200 C.3    24  LEU24       0.0001
     21  N          9.1760   44.9500   58.1050 N.am   25  THR25      -0.1937
     22  CA         7.7740   44.6890   58.3860 C.3    25  THR25       0.2028
     23  C          6.9530   45.9850   58.3880 C.2    25  THR25       0.2642
     24  O          7.2630   46.8700   59.1750 O.2    25  THR25      -0.2714
     25  CB         7.6650   43.9510   59.7810 C.3    25  THR25       0.1808
     26  OG1        8.0490   42.5900   59.5590 O.3    25  THR25      -0.2208
     27  CG2        6.2230   43.7840   60.2210 C.3    25  THR25       0.0379
     28  N          5.9510   46.1240   57.4860 N.am   26  ARG26      -0.1977
     29  CA         5.2180   47.4170   57.4000 C.3    26  ARG26       0.1597
     30  C          3.7000   47.2710   57.7250 C.2    26  ARG26       0.2287
     31  O          3.0340   48.2790   57.8660 O.2    26  ARG26      -0.2864
     32  CB         5.3580   48.1190   56.0460 C.3    26  ARG26       0.0334
     33  CG         6.8270   48.2810   55.5410 C.3    26  ARG26       0.0492
     34  CD         7.7810   49.0740   56.4570 C.3    26  ARG26       0.2205
     35  NE         7.1930   50.3290   56.9910 N.pl3  26  ARG26      -0.0865
     36  CZ         7.1480   51.4840   56.3440 C.cat  26  ARG26       0.5346
     37  NH1        7.6770   51.6040   55.1730 N.pl3  26  ARG26       0.1354
     38  NH2        6.6170   52.5610   56.9010 N.pl3  26  ARG26       0.1354
     39  N          9.2990   40.5930   56.1520 N.3    56  ALA56      -0.1245
     40  CA         9.0430   39.2150   56.4630 C.3    56  ALA56       0.1562
     41  C          7.6460   38.7570   55.9600 C.2    56  ALA56       0.2260
     42  O          6.6520   39.5180   56.0390 O.2    56  ALA56      -0.2867
     43  CB         9.2200   39.0110   57.9810 C.3    56  ALA56       0.0290
     44  N         12.0020   37.5910   51.9950 N.3    98  GLN98      -0.1245
     45  CA        12.3540   37.0550   53.3100 C.3    98  GLN98       0.1566
     46  C         11.1500   36.2790   53.8810 C.2    98  GLN98       0.2260
     47  O         10.0820   36.8330   54.0190 O.2    98  GLN98      -0.2867
     48  CB        12.7690   38.1460   54.3190 C.3    98  GLN98       0.0367
     49  CG        13.1240   37.5970   55.6990 C.3    98  GLN98       0.0905
     50  CD        13.2440   38.6640   56.7960 C.2    98  GLN98       0.2608
     51  OE1       12.2370   39.2020   57.2730 O.2    98  GLN98      -0.2717
     52  NE2       14.4910   38.9050   57.2660 N.am   98  GLN98      -0.0878
     53  N          9.5960   33.8980   57.0810 N.3   100  TRP100     -0.1241
     54  CA         9.5970   33.7360   58.5340 C.3   100  TRP100      0.1605
     55  C          8.3830   32.8960   59.0010 C.2   100  TRP100      0.2264
     56  O          7.4730   32.6170   58.2630 O.2   100  TRP100     -0.2867
     57  CB         9.5860   35.0990   59.3360 C.3   100  TRP100      0.0550
     58  CG         8.3500   35.9090   59.3620 C.ar  100  TRP100      0.0003
     59  CD1        7.2960   35.8020   58.5170 C.ar  100  TRP100      0.0946
     60  CD2        8.0350   37.0330   60.2310 C.ar  100  TRP100      0.0152
     61  NE1        6.3880   36.7940   58.7740 N.ar  100  TRP100     -0.2442
     62  CE2        6.8260   37.5620   59.8100 C.ar  100  TRP100      0.0810
     63  CE3        8.6900   37.6550   61.3140 C.ar  100  TRP100      0.0012
     64  CZ2        6.1950   38.6620   60.4580 C.ar  100  TRP100      0.0191
     65  CZ3        8.1190   38.7700   61.9050 C.ar  100  TRP100      0.0001
     66  CH2        6.8640   39.2520   61.4810 C.ar  100  TRP100      0.0015
     67  N         14.2960   33.7840   57.5320 N.3   175  HIS175     -0.1241
     68  CA        14.3450   34.7240   58.6590 C.3   175  HIS175      0.1621
     69  C         14.6800   33.9830   59.9170 C.2   175  HIS175      0.2264
     70  O         13.7480   33.5870   60.6570 O.2   175  HIS175     -0.2867
     71  CB        13.0340   35.4240   58.8130 C.3   175  HIS175      0.0745
     72  CG        13.0520   36.5460   59.8090 C.ar  175  HIS175      0.0817
     73  ND1       14.0700   36.7250   60.7270 N.ar  175  HIS175     -0.2268
     74  CD2       12.1890   37.5680   59.9990 C.ar  175  HIS175      0.1154
     75  CE1       13.8290   37.8140   61.4380 C.ar  175  HIS175      0.1986
     76  NE2       12.7020   38.3540   61.0080 N.ar  175  HIS175     -0.2212
     77  N         15.9670   37.6480   65.2930 N.3   178  ASN178     -0.1240
     78  CA        15.0340   38.5350   65.9960 C.3   178  ASN178      0.1653
     79  C         13.9990   37.8260   66.8990 C.2   178  ASN178      0.2266
     80  O         12.9220   38.3120   67.0390 O.2   178  ASN178     -0.2867
     81  CB        14.3970   39.5210   64.9810 C.3   178  ASN178      0.1155
     82  CG        15.4050   40.5990   64.5060 C.2   178  ASN178      0.2627
     83  OD1       16.4350   40.7370   65.1450 O.2   178  ASN178     -0.2716
     84  ND2       15.1070   41.3680   63.4120 N.am  178  ASN178     -0.0877
     85  N         12.1810   35.1150   66.4550 N.3   180  TYR180     -0.1241
     86  CA        11.0810   34.4300   65.7800 C.3   180  TYR180      0.1605
     87  C         11.4120   32.9390   65.7510 C.2   180  TYR180      0.2264
     88  O         12.3560   32.5150   66.4240 O.2   180  TYR180     -0.2867
     89  CB        10.7190   35.0600   64.4200 C.3   180  TYR180      0.0534
     90  CG        10.3120   36.5020   64.6610 C.ar  180  TYR180     -0.0201
     91  CD1        9.1840   36.7660   65.4310 C.ar  180  TYR180     -0.0009
     92  CD2       11.0520   37.5600   64.1750 C.ar  180  TYR180     -0.0009
     93  CE1        8.8030   38.0070   65.7300 C.ar  180  TYR180      0.0417
     94  CE2       10.6680   38.9100   64.4830 C.ar  180  TYR180      0.0417
     95  CZ         9.5240   39.0860   65.2300 C.ar  180  TYR180      0.1957
     96  OH         9.0530   40.2890   65.5970 O.3   180  TYR180     -0.2866
     97  N         19.2460   35.1590   57.4730 N.3   227  ARG227     -0.1245
     98  CA        19.4930   36.2580   58.3840 C.3   227  ARG227      0.1563
     99  C         19.5530   35.6460   59.7910 C.2   227  ARG227      0.2260
    100  O         18.6550   34.9650   60.2000 O.2   227  ARG227     -0.2867
    101  CB        18.3600   37.2960   58.3450 C.3   227  ARG227      0.0307
    102  CG        18.9120   38.6790   58.6680 C.3   227  ARG227      0.0489
    103  CD        17.8980   39.8230   58.6980 C.3   227  ARG227      0.2205
    104  NE        18.5910   41.0930   58.5240 N.pl3 227  ARG227     -0.0865
    105  CZ        18.0740   42.2560   58.9020 C.cat 227  ARG227      0.5346
    106  NH1       16.8920   42.2940   59.5010 N.pl3 227  ARG227      0.1354
    107  NH2       18.7330   43.3740   58.6980 N.pl3 227  ARG227      0.1354
    108  N         22.9560   40.7560   61.9090 N.3   264  ILE264     -0.1245
    109  CA        22.7170   41.9960   62.5950 C.3   264  ILE264      0.1561
    110  C         23.7840   42.1610   63.6480 C.2   264  ILE264      0.2260
    111  O         24.1390   41.1880   64.3880 O.2   264  ILE264     -0.2867
    112  CB        21.2710   41.9800   63.2340 C.3   264  ILE264      0.0252
    113  CG1       20.2400   41.8080   62.1060 C.3   264  ILE264      0.0019
    114  CG2       20.9320   43.3460   63.9650 C.3   264  ILE264      0.0019
    115  CD1       18.9020   41.1910   62.5470 C.3   264  ILE264      0.0001
    116  N         24.2020   44.2830   59.1340 N.3   285  ALA285     -0.1231
    117  CA        23.0980   45.2800   59.3400 C.3   285  ALA285      0.1694
    118  C         23.0620   45.8130   60.7530 C.2   285  ALA285      0.2593
    119  O         23.5510   45.1570   61.6870 O.2   285  ALA285     -0.2718
    120  CB        21.6920   44.6850   58.9430 C.3   285  ALA285      0.0304
    121  N         22.4620   46.9860   60.9210 N.am  286  GLY286     -0.1942
    122  CA        22.1700   47.4110   62.2730 C.3   286  GLY286      0.2014
    123  C         22.9330   48.6730   62.6070 C.2   286  GLY286      0.2639
    124  O         24.1190   48.6190   62.9260 O.2   286  GLY286     -0.2714
    125  N         22.2330   49.7950   62.5440 N.am  287  GLY287     -0.1939
    126  CA        22.8070   51.0590   62.9150 C.3   287  GLY287      0.2014
    127  C         23.9140   51.5540   62.0270 C.2   287  GLY287      0.2638
    128  O         24.6320   52.4260   62.5050 O.2   287  GLY287     -0.2714
    129  N         24.0450   51.0700   60.7760 N.am  288  PHE288     -0.1973
    130  CA        25.0600   51.6580   59.8850 C.3   288  PHE288      0.1639
    131  C         24.7010   53.0370   59.4680 C.2   288  PHE288      0.2290
    132  O         23.5570   53.3290   59.2040 O.2   288  PHE288     -0.2864
    133  CB        25.3260   50.8610   58.6080 C.3   288  PHE288      0.0560
    134  CG        26.1040   49.6650   58.8670 C.ar  288  PHE288     -0.0200
    135  CD1       25.4820   48.5450   59.4180 C.ar  288  PHE288     -0.0042
    136  CD2       27.4950   49.6520   58.6380 C.ar  288  PHE288     -0.0042
    137  CE1       26.2570   47.4040   59.7330 C.ar  288  PHE288     -0.0003
    138  CE2       28.2610   48.5160   58.9000 C.ar  288  PHE288     -0.0003
    139  CZ        27.6610   47.4050   59.4630 C.ar  288  PHE288     -0.0000
    140  N         22.9440   46.2770   54.6120 N.3   306  ALA306     -0.1231
    141  CA        21.4880   46.5180   54.6190 C.3   306  ALA306      0.1694
    142  C         21.1700   47.7090   55.5220 C.2   306  ALA306      0.2592
    143  O         21.5870   47.7530   56.7080 O.2   306  ALA306     -0.2718
    144  CB        20.7670   45.2270   55.1290 C.3   306  ALA306      0.0304
    145  N         20.4350   48.6740   54.9710 N.am  307  TYR307     -0.1962
    146  CA        19.8770   49.8070   55.6690 C.3   307  TYR307      0.1771
    147  C         18.3790   49.6530   55.7020 C.2   307  TYR307      0.2620
    148  O         17.7120   49.4120   54.6400 O.2   307  TYR307     -0.2715
    149  CB        20.1500   51.1560   54.8830 C.3   307  TYR307      0.0574
    150  CG        21.6000   51.4730   54.9060 C.ar  307  TYR307     -0.0198
    151  CD1       22.1410   52.3440   55.8940 C.ar  307  TYR307     -0.0009
    152  CD2       22.4820   50.8060   54.0420 C.ar  307  TYR307     -0.0009
    153  CE1       23.5470   52.5950   55.9470 C.ar  307  TYR307      0.0417
    154  CE2       23.8540   51.0320   54.1070 C.ar  307  TYR307      0.0417
    155  CZ        24.3850   51.9060   55.0410 C.ar  307  TYR307      0.1957
    156  OH        25.7890   52.1050   55.0400 O.3   307  TYR307     -0.2866
    157  N         17.8550   49.9230   56.8700 N.am  308  GLY308     -0.1940
    158  CA        16.4530   49.5980   57.2100 C.3   308  GLY308      0.2014
    159  C         15.8530   51.0080   57.3260 C.2   308  GLY308      0.2639
    160  O         15.3150   51.5490   56.3610 O.2   308  GLY308     -0.2714
    161  N         15.9860   51.6300   58.4760 N.am  309  ARG309     -0.1963
    162  CA        15.2740   52.8960   58.7020 C.3   309  ARG309      0.1729
    163  C         15.5480   54.0200   57.7160 C.2   309  ARG309      0.2616
    164  O         14.6090   54.7030   57.2550 O.2   309  ARG309     -0.2715
    165  CB        15.5530   53.3570   60.1250 C.3   309  ARG309      0.0348
    166  CG        14.7350   52.5870   61.1540 C.3   309  ARG309      0.0492
    167  CD        15.2320   52.8600   62.5570 C.3   309  ARG309      0.2205
    168  NE        16.5610   52.2720   62.7350 N.pl3 309  ARG309     -0.0865
    169  CZ        17.3120   52.5430   63.7830 C.cat 309  ARG309      0.5346
    170  NH1       16.7810   53.3560   64.7130 N.pl3 309  ARG309      0.1354
    171  NH2       18.5450   51.9890   63.9320 N.pl3 309  ARG309      0.1354
    172  N         16.8190   54.2750   57.4060 N.am  310  TRP310     -0.1974
    173  CA        17.1570   55.3280   56.4060 C.3   310  TRP310      0.1640
    174  C         16.5990   55.0040   55.0460 C.2   310  TRP310      0.2290
    175  O         16.2290   55.9120   54.3020 O.2   310  TRP310     -0.2864
    176  CB        18.6880   55.5820   56.2670 C.3   310  TRP310      0.0576
    177  CG        19.2660   56.2760   57.4920 C.ar  310  TRP310      0.0006
    178  CD1       20.2830   55.8490   58.2950 C.ar  310  TRP310      0.0946
    179  CD2       18.8110   57.5030   58.0550 C.ar  310  TRP310      0.0152
    180  NE1       20.5050   56.7520   59.3080 N.ar  310  TRP310     -0.2442
    181  CE2       19.6260   57.7870   59.1660 C.ar  310  TRP310      0.0810
    182  CE3       17.8390   58.4350   57.6910 C.ar  310  TRP310      0.0012
    183  CZ2       19.4410   58.9180   59.9490 C.ar  310  TRP310      0.0191
    184  CZ3       17.6710   59.5370   58.4440 C.ar  310  TRP310      0.0001
    185  CH2       18.4590   59.7850   59.5720 C.ar  310  TRP310      0.0015
    186  N         13.9610   53.1760   54.5160 N.3   312  LEU312     -0.1245
    187  CA        12.5020   53.2520   54.6950 C.3   312  LEU312      0.1561
    188  C         12.1130   54.6930   54.3250 C.2   312  LEU312      0.2260
    189  O         11.1320   54.9120   53.5700 O.2   312  LEU312     -0.2867
    190  CB        12.1230   52.9880   56.1900 C.3   312  LEU312      0.0270
    191  CG        10.6530   53.1310   56.6590 C.3   312  LEU312      0.0019
    192  CD1       10.3460   52.0650   57.7520 C.3   312  LEU312      0.0001
    193  CD2       10.2330   54.6260   57.0740 C.3   312  LEU312      0.0001
    194  N          5.9120   53.7600   61.0170 N.3   335  PHE335     -0.1227
    195  CA         6.5290   52.5140   60.5870 C.3   335  PHE335      0.1736
    196  C          5.4620   51.4280   60.3750 C.2   335  PHE335      0.2595
    197  O          5.4520   50.7440   59.3370 O.2   335  PHE335     -0.2718
    198  CB         7.5490   52.0720   61.6440 C.3   335  PHE335      0.0547
    199  CG         8.8490   52.8560   61.5980 C.ar  335  PHE335     -0.0202
    200  CD1        9.0290   53.8880   60.6920 C.ar  335  PHE335     -0.0042
    201  CD2        9.8840   52.5200   62.4330 C.ar  335  PHE335     -0.0042
    202  CE1       10.2300   54.6040   60.6440 C.ar  335  PHE335     -0.0003
    203  CE2       11.1140   53.2040   62.3860 C.ar  335  PHE335     -0.0003
    204  CZ        11.2710   54.2840   61.4910 C.ar  335  PHE335     -0.0000
    205  N          4.5470   51.3110   61.3280 N.am  336  TYR336     -0.1976
    206  CA         3.6990   50.1190   61.4020 C.3   336  TYR336      0.1639
    207  C          2.1940   50.4360   61.2760 C.2   336  TYR336      0.2290
    208  O          1.3750   49.5690   61.5000 O.2   336  TYR336     -0.2864
    209  CB         3.9410   49.3700   62.7250 C.3   336  TYR336      0.0560
    210  CG         5.3880   49.0000   63.0230 C.ar  336  TYR336     -0.0198
    211  CD1        5.9980   47.8660   62.3800 C.ar  336  TYR336     -0.0009
    212  CD2        6.1240   49.6890   64.0030 C.ar  336  TYR336     -0.0009
    213  CE1        7.3180   47.4980   62.6780 C.ar  336  TYR336      0.0417
    214  CE2        7.4570   49.3140   64.2670 C.ar  336  TYR336      0.0417
    215  CZ         7.9950   48.1870   63.5970 C.ar  336  TYR336      0.1957
    216  OH         9.2410   47.8240   63.8610 O.3   336  TYR336     -0.2866
@<TRIPOS>BOND
     1    44    45    1
     2    45    46    1
     3    45    48    1
     4   189   188    2
     5     1     2    1
     6    46    47    2
     7   152   154   ar
     8   152   150   ar
     9   154   155   ar
    10     4     3    2
    11   175   174    2
    12    48    49    1
    13   188   187    1
    14   186   187    1
    15     3     2    1
    16     3     6   am
    17   140   141    1
    18   141   144    1
    19   141   142    1
    20     2     5    1
    21   148   147    2
    22   187   190    1
    23   149   150    1
    24   149   146    1
    25   150   151   ar
    26   145   142   am
    27   145   146    1
    28   156   155    1
    29   155   153   ar
    30   174   173    1
    31     6     7    1
    32     6    12    1
    33    37    36    1
    34     7    10    1
    35     7     8    1
    36    19    18    1
    37    12    11    1
    38   142   143    2
    39    33    32    1
    40    33    34    1
    41   146   147    1
    42    49    50    1
    43   147   157   am
    44    10    11    1
    45   151   153   ar
    46    41    42    2
    47    41    40    1
    48    32    29    1
    49    16    15    2
    50    13     8   am
    51    13    14    1
    52    39    40    1
    53   190   191    1
    54   176   173    1
    55   176   177    1
    56    18    17    1
    57    18    20    1
    58    36    38    1
    59    36    35    2
    60    17    14    1
    61   160   159    2
    62     8     9    2
    63   173   172    1
    64    34    35    1
    65    40    43    1
    66   191   193    1
    67   191   192    1
    68    50    52   am
    69    50    51    2
    70   157   158    1
    71    14    15    1
    72    15    21   am
    73    53    54    1
    74   158   159    1
    75   164   163    2
    76   159   161   am
    77    29    28    1
    78    29    30    1
    79   172   163   am
    80    97    98    1
    81    28    23   am
    82   177   179   ar
    83   177   178   ar
    84    67    68    1
    85   182   179   ar
    86   182   184   ar
    87   163   162    1
    88    30    31    2
    89   179   181   ar
    90    21    22    1
    91    56    55    2
    92   178   180   ar
    93   101    98    1
    94   101   102    1
    95    98    99    1
    96    22    23    1
    97    22    25    1
    98    23    24    2
    99   184   185   ar
   100   161   162    1
   101    59    61   ar
   102    59    58   ar
   103   104   103    1
   104   104   105    2
   105    54    55    1
   106    54    57    1
   107   133   134    1
   108   133   130    1
   109   136   134   ar
   110   136   138   ar
   111    68    71    1
   112    68    69    1
   113   102   103    1
   114   107   105    1
   115   162   165    1
   116    61    62   ar
   117    71    72    1
   118   134   135   ar
   119   138   139   ar
   120   105   106    1
   121   120   117    1
   122   116   117    1
   123   181   180   ar
   124   181   183   ar
   125   132   131    2
   126    57    58    1
   127   197   196    2
   128   117   118    1
   129    58    60   ar
   130   135   137   ar
   131   139   137   ar
   132   131   130    1
   133    26    25    1
   134   185   183   ar
   135    25    27    1
   136    99   100    2
   137    72    74   ar
   138    72    73   ar
   139    62    60   ar
   140    62    64   ar
   141   130   129    1
   142    69    70    2
   143    74    76   ar
   144   165   166    1
   145    60    63   ar
   146   196   195    1
   147   196   205   am
   148    64    66   ar
   149   195   194    1
   150   195   198    1
   151   202   200   ar
   152   202   204   ar
   153   200   199   ar
   154    73    75   ar
   155   118   121   am
   156   118   119    2
   157   129   127   am
   158   121   122    1
   159    76    75   ar
   160   166   167    1
   161   207   206    1
   162   207   208    2
   163    63    65   ar
   164   205   206    1
   165   206   209    1
   166    66    65   ar
   167   204   203   ar
   168   199   198    1
   169   199   201   ar
   170   108   109    1
   171   127   128    2
   172   127   126    1
   173   113   115    1
   174   113   112    1
   175   122   123    1
   176   211   213   ar
   177   211   210   ar
   178   203   201   ar
   179   125   123   am
   180   125   126    1
   181   167   168    1
   182   109   112    1
   183   109   110    1
   184   123   124    2
   185   213   215   ar
   186   209   210    1
   187   168   169    2
   188   210   212   ar
   189   112   114    1
   190    84    82   am
   191   215   216    1
   192   215   214   ar
   193   110   111    2
   194   169   171    1
   195   169   170    1
   196   212   214   ar
   197    92    94   ar
   198    92    90   ar
   199    89    90    1
   200    89    86    1
   201    94    95   ar
   202    82    81    1
   203    82    83    2
   204    90    91   ar
   205    81    78    1
   206    95    96    1
   207    95    93   ar
   208    77    78    1
   209    91    93   ar
   210    87    86    1
   211    87    88    2
   212    86    85    1
   213    78    79    1
   214    79    80    2
