@<TRIPOS>MOLECULE
tmp/1vjoA00.pdb
 122 114 0 0 0
SMALL
GASTEIGER

@<TRIPOS>ATOM
      1  N         23.0550   41.5990   35.3060 N.3    24  PRO24      -0.2102
      2  CA        23.0760   42.5960   34.2220 C.3    24  PRO24       0.1504
      3  C         24.1060   42.2770   33.0950 C.2    24  PRO24       0.2576
      4  O         23.9700   42.7960   31.9920 O.2    24  PRO24      -0.2718
      5  CB        23.3610   43.9070   34.9720 C.3    24  PRO24       0.0282
      6  CG        24.0480   43.5140   36.2230 C.3    24  PRO24       0.0208
      7  CD        23.3430   42.1950   36.6270 C.3    24  PRO24       0.0893
      8  N         25.1000   41.4200   33.3800 N.am   25  GLY25      -0.1957
      9  CA        26.1610   41.0400   32.4190 C.3    25  GLY25       0.1869
     10  C         27.4560   40.7860   33.1990 C.2    25  GLY25       0.2309
     11  O         27.6230   41.2890   34.3330 O.2    25  GLY25      -0.2863
     12  N         35.2200   46.8140   25.4000 N.3    75  THR75      -0.1203
     13  CA        33.9200   46.3450   25.8970 C.3    75  THR75       0.1994
     14  C         32.8520   47.3590   25.5070 C.2    75  THR75       0.2618
     15  O         33.1210   48.3050   24.7450 O.2    75  THR75      -0.2717
     16  CB        33.9470   46.0640   27.4250 C.3    75  THR75       0.1784
     17  OG1       34.2030   47.3030   28.1150 O.3    75  THR75      -0.2211
     18  CG2       35.1620   45.1310   27.7870 C.3    75  THR75       0.0376
     19  N         31.6250   47.1680   25.9750 N.am   76  GLY76      -0.1942
     20  CA        30.4920   48.0650   25.5370 C.3    76  GLY76       0.2014
     21  C         30.8080   49.5350   25.7520 C.2    76  GLY76       0.2639
     22  O         30.4520   50.3580   24.9410 O.2    76  GLY76      -0.2714
     23  N         31.5410   49.8570   26.8360 N.am   77  THR77      -0.1950
     24  CA        31.8890   51.2390   27.1920 C.3    77  THR77       0.1897
     25  C         32.7430   51.8220   26.1050 C.2    77  THR77       0.2313
     26  O         32.6320   53.0360   25.8460 O.2    77  THR77      -0.2863
     27  CB        32.6210   51.2850   28.5270 C.3    77  THR77       0.1794
     28  OG1       31.7270   50.7900   29.5370 O.3    77  THR77      -0.2208
     29  CG2       32.9880   52.7330   29.0000 C.3    77  THR77       0.0378
     30  N         22.8770   54.4540   32.6140 N.3   101  PHE101     -0.1241
     31  CA        23.6740   54.6110   31.3820 C.3   101  PHE101      0.1605
     32  C         23.3590   55.9260   30.7200 C.2   101  PHE101      0.2264
     33  O         24.2380   56.5100   30.0840 O.2   101  PHE101     -0.2867
     34  CB        23.5410   53.3860   30.4840 C.3   101  PHE101      0.0534
     35  CG        24.2100   52.2160   31.0940 C.ar  101  PHE101     -0.0203
     36  CD1       25.5970   52.1120   31.0670 C.ar  101  PHE101     -0.0042
     37  CD2       23.4770   51.3440   31.8760 C.ar  101  PHE101     -0.0042
     38  CE1       26.2550   51.0500   31.7740 C.ar  101  PHE101     -0.0003
     39  CE2       24.1000   50.2820   32.5670 C.ar  101  PHE101     -0.0003
     40  CZ        25.4790   50.1370   32.4860 C.ar  101  PHE101     -0.0000
     41  N         25.8230   58.0830   32.4330 N.3   104  ARG104     -0.1245
     42  CA        27.1880   57.8750   31.9050 C.3   104  ARG104      0.1563
     43  C         27.4070   58.6400   30.5910 C.2   104  ARG104      0.2260
     44  O         28.4620   59.2730   30.3890 O.2   104  ARG104     -0.2867
     45  CB        27.4950   56.3730   31.7540 C.3   104  ARG104      0.0307
     46  CG        28.9530   56.1240   31.3210 C.3   104  ARG104      0.0489
     47  CD        29.2720   54.6220   31.2550 C.3   104  ARG104      0.2205
     48  NE        29.3970   54.0660   32.5890 N.pl3 104  ARG104     -0.0865
     49  CZ        29.9580   52.8780   32.8210 C.cat 104  ARG104      0.5346
     50  NH1       30.3770   52.1450   31.7780 N.pl3 104  ARG104      0.1354
     51  NH2       30.1060   52.4510   34.0750 N.pl3 104  ARG104      0.1354
     52  N         19.0450   55.4100   25.4930 N.3   146  VAL146     -0.1245
     53  CA        19.3990   54.0450   25.8020 C.3   146  VAL146      0.1561
     54  C         18.1890   53.1450   25.4460 C.2   146  VAL146      0.2260
     55  O         17.0850   53.2790   25.9760 O.2   146  VAL146     -0.2867
     56  CB        19.7540   53.9040   27.2970 C.3   146  VAL146      0.0252
     57  CG1       19.9840   52.4560   27.6010 C.3   146  VAL146      0.0019
     58  CG2       21.0060   54.7710   27.6350 C.3   146  VAL146      0.0019
     59  N         17.8120   49.8450   25.8230 N.3   148  ALA148     -0.1245
     60  CA        17.4820   48.8300   26.8040 C.3   148  ALA148      0.1562
     61  C         18.2850   49.1920   28.0700 C.2   148  ALA148      0.2260
     62  O         19.5260   49.0060   28.1410 O.2   148  ALA148     -0.2867
     63  CB        17.8320   47.4150   26.2650 C.3   148  ALA148      0.0290
     64  N         19.7210   48.6320   31.1840 N.3   150  THR150     -0.1218
     65  CA        20.0720   47.5040   32.0710 C.3   150  THR150      0.1862
     66  C         19.8970   47.8190   33.5500 C.2   150  THR150      0.2287
     67  O         19.6870   46.8990   34.3720 O.2   150  THR150     -0.2866
     68  CB        21.5430   47.1210   31.8630 C.3   150  THR150      0.1770
     69  OG1       21.8810   47.2990   30.4780 O.3   150  THR150     -0.2211
     70  CG2       21.7090   45.6290   32.1520 C.3   150  THR150      0.0375
     71  N         22.0840   53.3660   22.4790 N.3   175  ASP175     -0.1239
     72  CA        22.7480   52.2690   23.2110 C.3   175  ASP175      0.1674
     73  C         21.8850   51.0010   23.0080 C.2   175  ASP175      0.2266
     74  O         20.7140   51.0030   23.4060 O.2   175  ASP175     -0.2867
     75  CB        22.7650   52.6580   24.6730 C.3   175  ASP175      0.1410
     76  CG        23.4430   51.6510   25.5580 C.2   175  ASP175      0.3668
     77  OD1       23.2230   50.4310   25.3710 O.co2 175  ASP175     -0.2456
     78  OD2       24.1920   52.0310   26.4800 O.co2 175  ASP175     -0.2456
     79  N         23.2570   47.8230   23.9330 N.3   177  VAL177     -0.1231
     80  CA        24.1100   46.8670   24.6340 C.3   177  VAL177      0.1692
     81  C         23.2440   45.7020   25.1410 C.2   177  VAL177      0.2592
     82  O         23.6390   44.5330   25.0470 O.2   177  VAL177     -0.2718
     83  CB        24.8490   47.5090   25.8130 C.3   177  VAL177      0.0266
     84  CG1       25.3540   46.4480   26.7900 C.3   177  VAL177      0.0020
     85  CG2       26.0010   48.4280   25.3190 C.3   177  VAL177      0.0020
     86  N         22.0670   46.0060   25.6550 N.am  178  THR178     -0.1953
     87  CA        21.2500   44.9620   26.3270 C.3   178  THR178      0.1897
     88  C         20.0770   44.4900   25.4690 C.2   178  THR178      0.2313
     89  O         19.3360   43.5820   25.8680 O.2   178  THR178     -0.2863
     90  CB        20.8090   45.5500   27.6770 C.3   178  THR178      0.1794
     91  OG1       21.9760   45.7180   28.4770 O.3   178  THR178     -0.2208
     92  CG2       19.8800   44.6280   28.5050 C.3   178  THR178      0.0378
     93  N         25.6140   51.3640   19.3130 N.3   196  TYR196     -0.1241
     94  CA        26.6600   50.5040   19.8650 C.3   196  TYR196      0.1605
     95  C         26.0230   49.3790   20.6420 C.2   196  TYR196      0.2264
     96  O         24.8620   49.4670   21.0960 O.2   196  TYR196     -0.2867
     97  CB        27.6440   51.2720   20.7380 C.3   196  TYR196      0.0534
     98  CG        27.0400   51.9640   21.9230 C.ar  196  TYR196     -0.0201
     99  CD1       26.4890   53.2420   21.7920 C.ar  196  TYR196     -0.0009
    100  CD2       27.0530   51.3620   23.1710 C.ar  196  TYR196     -0.0009
    101  CE1       25.9880   53.9310   22.8890 C.ar  196  TYR196      0.0417
    102  CE2       26.4940   52.0100   24.2760 C.ar  196  TYR196      0.0417
    103  CZ        25.9910   53.3000   24.1270 C.ar  196  TYR196      0.1957
    104  OH        25.4470   53.9750   25.2140 O.3   196  TYR196     -0.2866
    105  N         28.9200   40.4720   25.1160 N.3   200  GLN200     -0.1231
    106  CA        28.7230   39.5020   26.2180 C.3   200  GLN200      0.1698
    107  C         27.2830   39.2130   26.6500 C.2   200  GLN200      0.2592
    108  O         27.0830   38.5760   27.6830 O.2   200  GLN200     -0.2718
    109  CB        29.4960   39.9630   27.4840 C.3   200  GLN200      0.0381
    110  CG        28.9120   41.2340   28.1590 C.3   200  GLN200      0.0905
    111  CD        29.6180   42.5280   27.7220 C.2   200  GLN200      0.2608
    112  OE1       30.2420   42.5640   26.6520 O.2   200  GLN200     -0.2717
    113  NE2       29.5610   43.5470   28.5710 N.am  200  GLN200     -0.0878
    114  N         26.2910   39.7090   25.9160 N.am  201  LYS201     -0.1980
    115  CA        24.8930   39.5330   26.3300 C.3   201  LYS201      0.1596
    116  C         24.1110   38.7170   25.3190 C.2   201  LYS201      0.2287
    117  O         24.3200   37.5060   25.2290 O.2   201  LYS201     -0.2864
    118  CB        24.2420   40.8900   26.6770 C.3   201  LYS201      0.0298
    119  CG        25.0180   41.6130   27.7680 C.3   201  LYS201      0.0038
    120  CD        24.2950   42.8810   28.2040 C.3   201  LYS201      0.0206
    121  CE        25.1800   43.6900   29.1440 C.3   201  LYS201      0.1093
    122  NZ        24.3670   44.6390   29.9540 N.3   201  LYS201     -0.1314
@<TRIPOS>BOND
     1    93    94    1
     2    94    95    1
     3    94    97    1
     4    95    96    2
     5    97    98    1
     6    99    98   ar
     7    99   101   ar
     8    98   100   ar
     9    71    72    1
    10   101   103   ar
    11    73    72    1
    12    73    74    2
    13   100   102   ar
    14    72    75    1
    15    79    80    1
    16   103   102   ar
    17   103   104    1
    18    80    81    1
    19    80    83    1
    20    75    76    1
    21    15    14    2
    22    22    21    2
    23    82    81    2
    24   105   106    1
    25    81    86   am
    26   117   116    2
    27   116   115    1
    28    85    83    1
    29    77    76   ar
    30    12    13    1
    31    54    53    1
    32    54    55    2
    33    88    89    2
    34    88    87    1
    35    52    53    1
    36    14    13    1
    37    14    19   am
    38    20    21    1
    39    20    19    1
    40    76    78   ar
    41    86    87    1
    42    21    23   am
    43    53    56    1
    44    83    84    1
    45    59    60    1
    46    26    25    2
    47    13    16    1
    48   114   115    1
    49   114   107   am
    50    25    24    1
    51   106   107    1
    52   106   109    1
    53    63    60    1
    54    87    90    1
    55   115   118    1
    56   107   108    2
    57   112   111    2
    58   118   119    1
    59    60    61    1
    60    23    24    1
    61    24    27    1
    62    56    57    1
    63    56    58    1
    64    16    18    1
    65    16    17    1
    66   109   110    1
    67    90    91    1
    68    90    92    1
    69   111   110    1
    70   111   113   am
    71   119   120    1
    72    61    62    2
    73   120   121    1
    74    27    29    1
    75    27    28    1
    76   121   122    1
    77    33    32    2
    78    44    43    2
    79    69    68    1
    80    34    35    1
    81    34    31    1
    82    43    42    1
    83    32    31    1
    84    36    35   ar
    85    36    38   ar
    86    35    37   ar
    87    64    65    1
    88    47    46    1
    89    47    48    1
    90    46    45    1
    91    31    30    1
    92    45    42    1
    93    38    40   ar
    94    50    49    1
    95    68    65    1
    96    68    70    1
    97    37    39   ar
    98    42    41    1
    99     4     3    2
   100    65    66    1
   101     9    10    1
   102     9     8    1
   103    40    39   ar
   104    48    49    2
   105    49    51    1
   106     3     8   am
   107     3     2    1
   108    10    11    2
   109    66    67    2
   110     2     5    1
   111     2     1    1
   112     5     6    1
   113     1     7    1
   114     6     7    1
