@<TRIPOS>MOLECULE
tmp/1vjtA00.pdb
 192 183 0 0 0
SMALL
GASTEIGER

@<TRIPOS>ATOM
      1  N         66.1900   14.4200    9.0360 N.3     7  ILE7       -0.1231
      2  CA        67.3470   13.5460    9.2000 C.3     7  ILE7        0.1692
      3  C         66.8680   12.1860    9.7020 C.2     7  ILE7        0.2592
      4  O         66.2930   12.0780   10.7910 O.2     7  ILE7       -0.2718
      5  CB        68.3970   14.1700   10.1570 C.3     7  ILE7        0.0266
      6  CG1       69.1320   15.3350    9.4860 C.3     7  ILE7        0.0019
      7  CG2       69.4510   13.1370   10.5590 C.3     7  ILE7        0.0020
      8  CD1       68.2610   16.4080    8.8860 C.3     7  ILE7        0.0001
      9  N         67.1160   11.1610    8.8890 N.am    8  GLY8       -0.1957
     10  CA        66.5770    9.8250    9.1050 C.3     8  GLY8        0.1869
     11  C         65.2610    9.6320    8.3730 C.2     8  GLY8        0.2309
     12  O         64.3430    9.0040    8.8960 O.2     8  GLY8       -0.2863
     13  N         64.4350    7.6930    6.0590 N.3    10  GLY10      -0.1210
     14  CA        64.0940    6.2910    5.8210 C.3    10  GLY10       0.1956
     15  C         63.0190    5.7280    6.7400 C.2    10  GLY10       0.2612
     16  O         62.4560    4.6680    6.4550 O.2    10  GLY10      -0.2717
     17  N         62.7330    6.4120    7.8490 N.am   11  SER11      -0.1952
     18  CA        61.5370    6.1110    8.6470 C.3    11  SER11       0.1924
     19  C         60.3270    6.5220    7.8310 C.2    11  SER11       0.2314
     20  O         59.6780    7.5250    8.1210 O.2    11  SER11      -0.2863
     21  CB        61.5340    6.8680    9.9710 C.3    11  SER11       0.2116
     22  OG        60.3690    6.5300   10.7020 O.3    11  SER11      -0.2180
     23  N         56.7910    7.8740    9.1010 N.3    14  PHE14      -0.1241
     24  CA        56.8690    9.1220    9.8690 C.3    14  PHE14       0.1605
     25  C         57.2320   10.2970    8.9510 C.2    14  PHE14       0.2264
     26  O         56.6780   11.3850    9.0770 O.2    14  PHE14      -0.2867
     27  CB        57.8470    9.0120   11.0450 C.3    14  PHE14       0.0534
     28  CG        57.9700   10.2860   11.8390 C.ar   14  PHE14      -0.0203
     29  CD1       56.8970   10.7600   12.5840 C.ar   14  PHE14      -0.0042
     30  CD2       59.1430   11.0300   11.8140 C.ar   14  PHE14      -0.0042
     31  CE1       56.9990   11.9480   13.3020 C.ar   14  PHE14      -0.0003
     32  CE2       59.2500   12.2200   12.5250 C.ar   14  PHE14      -0.0003
     33  CZ        58.1790   12.6780   13.2700 C.ar   14  PHE14      -0.0000
     34  N         69.3300   10.5420    4.6930 N.3    37  ASP37      -0.1225
     35  CA        69.4330    9.2460    5.3610 C.3    37  ASP37       0.1805
     36  C         70.6900    8.5230    4.8630 C.2    37  ASP37       0.2598
     37  O         71.1580    8.7880    3.7670 O.2    37  ASP37      -0.2718
     38  CB        68.1740    8.4180    5.0740 C.3    37  ASP37       0.1424
     39  CG        67.9820    7.2710    6.0510 C.2    37  ASP37       0.3668
     40  OD1       68.9070    6.4510    6.2190 O.co2  37  ASP37      -0.2456
     41  OD2       66.9200    7.0980    6.6810 O.co2  37  ASP37      -0.2456
     42  N         71.2370    7.6250    5.6700 N.am   38  VAL38      -0.1966
     43  CA        72.4600    6.8950    5.2940 C.3    38  VAL38       0.1727
     44  C         72.1830    5.5590    4.5950 C.2    38  VAL38       0.2616
     45  O         73.0610    5.0110    3.9310 O.2    38  VAL38      -0.2715
     46  CB        73.3910    6.6490    6.5120 C.3    38  VAL38       0.0290
     47  CG1       73.9070    7.9770    7.0640 C.3    38  VAL38       0.0023
     48  CG2       72.6920    5.8330    7.5940 C.3    38  VAL38       0.0023
     49  N         70.9710    5.0360    4.7420 N.am   39  HIS39      -0.1973
     50  CA        70.6070    3.7720    4.1130 C.3    39  HIS39       0.1656
     51  C         69.7450    4.0320    2.8710 C.2    39  HIS39       0.2291
     52  O         68.6020    4.4810    2.9670 O.2    39  HIS39      -0.2864
     53  CB        69.9510    2.8530    5.1450 C.3    39  HIS39       0.0771
     54  CG        70.8570    2.5170    6.2980 C.ar   39  HIS39       0.0820
     55  ND1       70.6850    3.0360    7.5680 N.ar   39  HIS39      -0.2267
     56  CD2       71.9630    1.7310    6.3620 C.ar   39  HIS39       0.1154
     57  CE1       71.6420    2.5870    8.3630 C.ar   39  HIS39       0.1986
     58  NE2       72.4250    1.7840    7.6590 N.ar   39  HIS39      -0.2212
     59  N         66.0400    2.5910    1.6410 N.3    42  ARG42      -0.1245
     60  CA        64.9370    3.2660    2.3230 C.3    42  ARG42       0.1563
     61  C         64.7460    4.7030    1.8530 C.2    42  ARG42       0.2260
     62  O         63.6150    5.1420    1.6310 O.2    42  ARG42      -0.2867
     63  CB        65.1830    3.2900    3.8220 C.3    42  ARG42       0.0307
     64  CG        64.0850    2.6400    4.6050 C.3    42  ARG42       0.0489
     65  CD        64.4730    2.3420    6.0360 C.3    42  ARG42       0.2205
     66  NE        65.7100    1.5670    6.0930 N.pl3  42  ARG42      -0.0865
     67  CZ        66.1710    0.9780    7.1800 C.cat  42  ARG42       0.5346
     68  NH1       65.4970    1.0260    8.3300 N.pl3  42  ARG42       0.1354
     69  NH2       67.3090    0.3100    7.1070 N.pl3  42  ARG42       0.1354
     70  N         74.8010   14.5750    5.5090 N.3    69  LEU69      -0.1245
     71  CA        74.1600   15.3930    6.5450 C.3    69  LEU69       0.1561
     72  C         74.5970   16.8780    6.5400 C.2    69  LEU69       0.2260
     73  O         73.8360   17.7320    6.9640 O.2    69  LEU69      -0.2867
     74  CB        74.2490   14.7640    7.9490 C.3    69  LEU69       0.0270
     75  CG        75.5210   14.7490    8.7960 C.3    69  LEU69       0.0019
     76  CD1       75.1710   14.2560   10.2000 C.3    69  LEU69       0.0001
     77  CD2       76.6210   13.8810    8.1640 C.3    69  LEU69       0.0001
     78  N         64.9440   12.3690   13.2550 N.3    82  THR82      -0.1203
     79  CA        64.2010   11.1490   13.5290 C.3    82  THR82       0.1994
     80  C         65.0420    9.9250   13.1940 C.2    82  THR82       0.2618
     81  O         64.5190    8.9060   12.7780 O.2    82  THR82      -0.2717
     82  CB        62.8730   11.1610   12.7510 C.3    82  THR82       0.1784
     83  OG1       62.0650   10.0610   13.1720 O.3    82  THR82      -0.2211
     84  CG2       63.0740   10.9300   11.2510 C.3    82  THR82       0.0376
     85  N         66.3510   10.0390   13.3940 N.am   83  ALA83      -0.1965
     86  CA        67.2940    8.9830   13.0190 C.3    83  ALA83       0.1728
     87  C         67.4390    7.9620   14.1430 C.2    83  ALA83       0.2616
     88  O         67.4280    8.3140   15.3340 O.2    83  ALA83      -0.2715
     89  CB        68.6610    9.5780   12.6620 C.3    83  ALA83       0.0334
     90  N         67.5550    6.6970   13.7500 N.am   84  TYR84      -0.1960
     91  CA        67.7770    5.6010   14.6790 C.3    84  TYR84       0.1756
     92  C         69.0280    4.8720   14.1610 C.2    84  TYR84       0.2461
     93  O         68.9250    3.9780   13.3100 O.2    84  TYR84      -0.2730
     94  CB        66.5360    4.7010   14.7070 C.3    84  TYR84       0.0574
     95  CG        66.3450    3.8200   15.9320 C.ar   84  TYR84      -0.0198
     96  CD1       67.3150    3.7190   16.9300 C.ar   84  TYR84      -0.0009
     97  CD2       65.1860    3.0470   16.0650 C.ar   84  TYR84      -0.0009
     98  CE1       67.1290    2.8940   18.0340 C.ar   84  TYR84       0.0417
     99  CE2       64.9870    2.2200   17.1660 C.ar   84  TYR84       0.0417
    100  CZ        65.9680    2.1460   18.1450 C.ar   84  TYR84       0.1957
    101  OH        65.7880    1.3170   19.2340 O.3    84  TYR84      -0.2866
    102  N         70.2100    5.2960   14.6230 N.am   85  PRO85      -0.2716
    103  CA        71.4830    4.8050   14.0910 C.3    85  PRO85       0.1536
    104  C         71.6860    3.3120   14.2190 C.2    85  PRO85       0.2598
    105  O         71.1530    2.6940   15.1380 O.2    85  PRO85      -0.2715
    106  CB        72.5220    5.5250   14.9540 C.3    85  PRO85       0.0310
    107  CG        71.8400    6.7300   15.4210 C.3    85  PRO85       0.0237
    108  CD        70.4360    6.2970   15.6770 C.3    85  PRO85       0.0939
    109  N         72.4460    2.7490   13.2840 N.am   86  TYR86      -0.1974
    110  CA        72.9180    1.3690   13.3980 C.3    86  TYR86       0.1639
    111  C         74.0800    1.0620   12.4500 C.2    86  TYR86       0.2290
    112  O         74.4880    1.9020   11.6540 O.2    86  TYR86      -0.2864
    113  CB        71.7730    0.3850   13.1660 C.3    86  TYR86       0.0560
    114  CG        71.2580    0.3400   11.7560 C.ar   86  TYR86      -0.0198
    115  CD1       71.8700   -0.4680   10.8010 C.ar   86  TYR86      -0.0009
    116  CD2       70.1480    1.0830   11.3780 C.ar   86  TYR86      -0.0009
    117  CE1       71.3940   -0.5420    9.5070 C.ar   86  TYR86       0.0417
    118  CE2       69.6560    1.0230   10.0790 C.ar   86  TYR86       0.0417
    119  CZ        70.2820    0.1970    9.1500 C.ar   86  TYR86       0.1957
    120  OH        69.8210    0.1180    7.8560 O.3    86  TYR86      -0.2866
    121  N         68.4810   -2.1920   10.8280 N.3    93  SER93      -0.1202
    122  CA        67.5110   -1.3580   11.5480 C.3    93  SER93       0.2020
    123  C         67.9660   -1.0960   12.9790 C.2    93  SER93       0.2619
    124  O         68.4820   -1.9860   13.6470 O.2    93  SER93      -0.2717
    125  CB        66.1380   -2.0430   11.5900 C.3    93  SER93       0.2103
    126  OG        65.2090   -1.2840   12.3490 O.3    93  SER93      -0.2182
    127  N         67.7460    0.1170   13.4590 N.am   94  GLY94      -0.1956
    128  CA        68.1020    0.4670   14.8230 C.3    94  GLY94       0.1869
    129  C         67.5600   -0.4870   15.8780 C.2    94  GLY94       0.2309
    130  O         68.2550   -0.7970   16.8450 O.2    94  GLY94      -0.2863
    131  N         63.0520    0.4360   23.8670 N.3   123  THR123     -0.1218
    132  CA        63.9140    1.1570   22.9360 C.3   123  THR123      0.1862
    133  C         64.1200    2.6130   23.3240 C.2   123  THR123      0.2287
    134  O         64.5460    3.4010   22.4910 O.2   123  THR123     -0.2866
    135  CB        63.4130    1.0500   21.4480 C.3   123  THR123      0.1770
    136  OG1       62.1600    1.7170   21.2730 O.3   123  THR123     -0.2211
    137  CG2       63.1150   -0.3720   21.0490 C.3   123  THR123      0.0375
    138  N         72.9100    7.2730   19.6750 N.3   133  ASP133     -0.1239
    139  CA        71.8860    8.2970   19.4590 C.3   133  ASP133      0.1674
    140  C         72.2970    9.6900   19.9850 C.2   133  ASP133      0.2266
    141  O         71.9660   10.7160   19.3890 O.2   133  ASP133     -0.2867
    142  CB        70.5780    7.8610   20.1240 C.3   133  ASP133      0.1410
    143  CG        70.2600    6.3790   19.8870 C.2   133  ASP133      0.3668
    144  OD1       69.7060    6.0490   18.8060 O.co2 133  ASP133     -0.2456
    145  OD2       70.5180    5.4860   20.7340 O.co2 133  ASP133     -0.2456
    146  N         75.0770   11.2600   17.7210 N.3   135  LEU135     -0.1245
    147  CA        74.5320   11.8110   16.4850 C.3   135  LEU135      0.1561
    148  C         73.8700   13.1780   16.6710 C.2   135  LEU135      0.2260
    149  O         74.0480   14.0510   15.8460 O.2   135  LEU135     -0.2867
    150  CB        73.5210   10.8340   15.8750 C.3   135  LEU135      0.0270
    151  CG        72.8340   11.2870   14.5820 C.3   135  LEU135      0.0019
    152  CD1       73.8500   11.7660   13.5390 C.3   135  LEU135      0.0001
    153  CD2       71.9870   10.1620   14.0300 C.3   135  LEU135      0.0001
    154  N         63.2280   14.1020   17.8180 N.3   152  THR152     -0.1203
    155  CA        62.2070   13.0640   17.8810 C.3   152  THR152      0.1994
    156  C         62.7780   11.7050   18.3140 C.2   152  THR152      0.2618
    157  O         62.0790   10.9120   18.9260 O.2   152  THR152     -0.2717
    158  CB        61.5190   12.9760   16.5090 C.3   152  THR152      0.1784
    159  OG1       60.6090   14.0810   16.3650 O.3   152  THR152     -0.2211
    160  CG2       60.6350   11.7330   16.3820 C.3   152  THR152      0.0376
    161  N         64.0410   11.4410   17.9900 N.am  153  ALA153     -0.1965
    162  CA        64.7120   10.2020   18.3670 C.3   153  ALA153      0.1728
    163  C         64.8830   10.0910   19.8760 C.2   153  ALA153      0.2616
    164  O         65.0730   11.0850   20.5530 O.2   153  ALA153     -0.2715
    165  CB        66.0740   10.1280   17.6960 C.3   153  ALA153      0.0334
    166  N         64.8320    8.8690   20.3930 N.am  154  ASN154     -0.1972
    167  CA        64.9840    8.6290   21.8230 C.3   154  ASN154      0.1688
    168  C         66.4320    8.4030   22.2240 C.2   154  ASN154      0.2292
    169  O         67.2410    8.0210   21.3880 O.2   154  ASN154     -0.2864
    170  CB        64.1700    7.4110   22.2430 C.3   154  ASN154      0.1181
    171  CG        62.7000    7.6810   22.2380 C.2   154  ASN154      0.2629
    172  OD1       62.2550    8.7820   22.5790 O.2   154  ASN154     -0.2716
    173  ND2       61.9250    6.6820   21.8500 N.am  154  ASN154     -0.0877
    174  N         56.8190   -3.9730   12.1360 N.3   296  LEU296     -0.1245
    175  CA        57.4300   -2.7300   11.6990 C.3   296  LEU296      0.1561
    176  C         58.4040   -3.0140   10.5460 C.2   296  LEU296      0.2260
    177  O         58.4480   -2.2780    9.5550 O.2   296  LEU296     -0.2867
    178  CB        58.1450   -2.0660   12.8800 C.3   296  LEU296      0.0270
    179  CG        57.9110   -0.5720   13.1150 C.3   296  LEU296      0.0019
    180  CD1       56.4200   -0.2360   13.2100 C.3   296  LEU296      0.0001
    181  CD2       58.6450   -0.1330   14.3830 C.3   296  LEU296      0.0001
    182  N         58.3400   -1.8060    6.4840 N.3   300  ARG300     -0.1245
    183  CA        59.4000   -1.1280    5.7170 C.3   300  ARG300      0.1563
    184  C         59.5550   -1.8040    4.3670 C.2   300  ARG300      0.2260
    185  O         59.5110   -1.1460    3.3270 O.2   300  ARG300     -0.2867
    186  CB        60.7480   -1.1410    6.4490 C.3   300  ARG300      0.0307
    187  CG        60.8630   -0.1010    7.5390 C.3   300  ARG300      0.0489
    188  CD        62.1370   -0.1850    8.3820 C.3   300  ARG300      0.2205
    189  NE        61.9230    0.4260    9.7070 N.pl3 300  ARG300     -0.0865
    190  CZ        61.9390   -0.2310   10.8810 C.cat 300  ARG300      0.5346
    191  NH1       62.1830   -1.5440   10.9410 N.pl3 300  ARG300      0.1354
    192  NH2       61.7120    0.4340   12.0170 N.pl3 300  ARG300      0.1354
@<TRIPOS>BOND
     1    62    61    2
     2    59    60    1
     3    61    60    1
     4    60    63    1
     5    51    52    2
     6    51    50    1
     7   185   184    2
     8    37    36    2
     9    63    64    1
    10    45    44    2
    11    50    49    1
    12    50    53    1
    13   184   183    1
    14    44    49   am
    15    44    43    1
    16    64    65    1
    17    34    35    1
    18    36    35    1
    19    36    42   am
    20    38    35    1
    21    38    39    1
    22    53    54    1
    23    43    42    1
    24    43    46    1
    25    70    71    1
    26   183   186    1
    27   183   182    1
    28    14    13    1
    29    14    15    1
    30    65    66    1
    31    39    40   ar
    32    39    41   ar
    33    66    67    2
    34    54    56   ar
    35    54    55   ar
    36    56    58   ar
    37   186   187    1
    38    16    15    2
    39    46    47    1
    40    46    48    1
    41    72    71    1
    42    72    73    2
    43    71    74    1
    44    15    17   am
    45    69    67    1
    46    67    68    1
    47   187   188    1
    48    55    57   ar
    49    58    57   ar
    50    19    20    2
    51    19    18    1
    52    17    18    1
    53   120   119    1
    54    74    75    1
    55    77    75    1
    56    11    12    2
    57    11    10    1
    58   188   189    1
    59    18    21    1
    60    75    76    1
    61     8     6    1
    62     9    10    1
    63     9     3   am
    64    25    26    2
    65    25    24    1
    66     1     2    1
    67    23    24    1
    68   119   117   ar
    69   119   118   ar
    70     2     3    1
    71     2     5    1
    72     6     5    1
    73   117   115   ar
    74   177   176    2
    75     3     4    2
    76   189   190    2
    77    24    27    1
    78    21    22    1
    79   118   116   ar
    80     5     7    1
    81   176   175    1
    82   115   114   ar
    83   121   122    1
    84   190   191    1
    85   190   192    1
    86    27    28    1
    87    84    82    1
    88   116   114   ar
    89   122   125    1
    90   122   123    1
    91   125   126    1
    92   112   111    2
    93   175   174    1
    94   175   178    1
    95   114   113    1
    96    30    28   ar
    97    30    32   ar
    98    28    29   ar
    99   111   110    1
   100    32    33   ar
   101    29    31   ar
   102    89    86    1
   103    82    83    1
   104    82    79    1
   105    81    80    2
   106   178   179    1
   107   123   127   am
   108   123   124    2
   109    86    85    1
   110    86    87    1
   111   179   180    1
   112   179   181    1
   113   113   110    1
   114    80    85   am
   115    80    79    1
   116    78    79    1
   117    33    31   ar
   118   109   110    1
   119   109   104   am
   120    93    92    2
   121   127   128    1
   122   152   151    1
   123    90    87   am
   124    90    91    1
   125   153   151    1
   126   103   104    1
   127   103   102    1
   128   103   106    1
   129    87    88    2
   130    92   102   am
   131    92    91    1
   132   104   105    2
   133   151   150    1
   134   102   108    1
   135    91    94    1
   136    94    95    1
   137   128   129    1
   138   106   107    1
   139   107   108    1
   140   149   148    2
   141   150   147    1
   142   129   130    2
   143    95    97   ar
   144    95    96   ar
   145    97    99   ar
   146   159   158    1
   147   160   158    1
   148   147   148    1
   149   147   146    1
   150   158   155    1
   151    96    98   ar
   152    99   100   ar
   153   165   162    1
   154   154   155    1
   155   155   156    1
   156   161   156   am
   157   161   162    1
   158    98   100   ar
   159   100   101    1
   160   156   157    2
   161   162   163    1
   162   144   143   ar
   163   141   140    2
   164   139   138    1
   165   139   140    1
   166   139   142    1
   167   163   166   am
   168   163   164    2
   169   143   142    1
   170   143   145   ar
   171   166   167    1
   172   137   135    1
   173   136   135    1
   174   169   168    2
   175   135   132    1
   176   167   168    1
   177   167   170    1
   178   173   171   am
   179   171   170    1
   180   171   172    2
   181   134   133    2
   182   132   133    1
   183   132   131    1
