@<TRIPOS>MOLECULE
tmp/1vjyA00.pdb
 174 164 0 0 0
SMALL
GASTEIGER

@<TRIPOS>ATOM
      1  N         24.1140   64.0990    3.5860 N.3    11  ILE11      -0.1231
      2  CA        24.0320   65.5360    3.8250 C.3    11  ILE11       0.1696
      3  C         23.5940   65.9870    5.2150 C.2    11  ILE11       0.2631
      4  O         23.6390   67.1810    5.5210 O.2    11  ILE11      -0.2714
      5  CB        23.0970   66.2190    2.7850 C.3    11  ILE11       0.0266
      6  CG1       21.7370   65.5280    2.7540 C.3    11  ILE11       0.0019
      7  CG2       23.7200   66.1620    1.3980 C.3    11  ILE11       0.0020
      8  CD1       20.7940   66.1030    1.7100 C.3    11  ILE11       0.0001
      9  N         23.1710   65.0550    6.0630 N.am   12  GLY12      -0.1732
     10  CA        22.7560   65.4530    7.3970 C.2    12  GLY12       0.1340
     11  C         22.1390   64.3590    8.2420 C.2    12  GLY12       0.2521
     12  O         21.7630   63.3030    7.7400 O.2    12  GLY12      -0.2816
     13  N         19.7320   62.0550    6.5350 N.3    19  VAL19      -0.1245
     14  CA        19.3090   62.6370    5.2680 C.3    19  VAL19       0.1561
     15  C         20.3740   62.4800    4.1940 C.2    19  VAL19       0.2260
     16  O         21.5630   62.6920    4.4380 O.2    19  VAL19      -0.2867
     17  CB        18.9880   64.1420    5.4290 C.3    19  VAL19       0.0252
     18  CG1       18.5330   64.7280    4.0990 C.3    19  VAL19       0.0019
     19  CG2       17.9140   64.3310    6.4800 C.3    19  VAL19       0.0019
     20  N         15.7320   64.9430   -1.6740 N.3    30  ALA30      -0.1245
     21  CA        16.3340   64.6410   -0.3800 C.3    30  ALA30       0.1562
     22  C         15.6610   63.3820    0.1400 C.2    30  ALA30       0.2260
     23  O         14.4510   63.2380    0.0320 O.2    30  ALA30      -0.2867
     24  CB        16.1280   65.7960    0.6070 C.3    30  ALA30       0.0290
     25  N         15.3140   60.8660    3.5470 N.3    32  LYS32      -0.1245
     26  CA        15.5900   60.6500    4.9630 C.3    32  LYS32       0.1561
     27  C         15.3740   59.1640    5.2140 C.2    32  LYS32       0.2260
     28  O         14.2830   58.6390    4.9940 O.2    32  LYS32      -0.2867
     29  CB        14.6560   61.4870    5.8620 C.3    32  LYS32       0.0271
     30  CG        14.9930   61.3820    7.3550 C.3    32  LYS32       0.0035
     31  CD        14.0390   62.1750    8.2500 C.3    32  LYS32       0.0206
     32  CE        14.4280   63.6290    8.3710 C.3    32  LYS32       0.1093
     33  NZ        13.4790   64.3590    9.2750 N.3    32  LYS32      -0.1314
     34  N          6.4140   61.0550   11.2550 N.3    45  GLU45      -0.1245
     35  CA         6.7550   62.1720   10.3640 C.3    45  GLU45       0.1567
     36  C          6.0000   62.0210    9.0260 C.2    45  GLU45       0.2260
     37  O          5.5520   63.0080    8.4420 O.2    45  GLU45      -0.2867
     38  CB         8.2890   62.2850   10.1640 C.3    45  GLU45       0.0388
     39  CG         8.7200   63.4500    9.2500 C.3    45  GLU45       0.1160
     40  CD        10.1420   63.9630    9.4790 C.2    45  GLU45       0.3649
     41  OE1       11.0530   63.1660    9.7930 O.co2  45  GLU45      -0.2457
     42  OE2       10.3530   65.1910    9.3260 O.co2  45  GLU45      -0.2457
     43  N          3.2690   64.8840    7.5970 N.3    49  TYR49      -0.1241
     44  CA         3.3660   65.3940    6.2310 C.3    49  TYR49       0.1605
     45  C          2.1690   65.0570    5.3420 C.2    49  TYR49       0.2264
     46  O          1.8780   65.7750    4.3850 O.2    49  TYR49      -0.2867
     47  CB         4.6540   64.8840    5.5760 C.3    49  TYR49       0.0534
     48  CG         5.8280   65.7870    5.8460 C.ar   49  TYR49      -0.0201
     49  CD1        5.8850   67.0670    5.2840 C.ar   49  TYR49      -0.0009
     50  CD2        6.8920   65.3710    6.6470 C.ar   49  TYR49      -0.0009
     51  CE1        6.9720   67.9030    5.5070 C.ar   49  TYR49       0.0417
     52  CE2        7.9850   66.2030    6.8760 C.ar   49  TYR49       0.0417
     53  CZ         8.0200   67.4650    6.3020 C.ar   49  TYR49       0.1957
     54  OH         9.1040   68.2730    6.5040 O.3    49  TYR49      -0.2866
     55  N          8.5010   72.3650    3.9250 N.3    60  LEU60      -0.1245
     56  CA         9.2210   71.4260    3.0640 C.3    60  LEU60       0.1561
     57  C          8.2450   70.5860    2.2440 C.2    60  LEU60       0.2260
     58  O          7.3280   69.9800    2.7940 O.2    60  LEU60      -0.2867
     59  CB        10.1250   70.5050    3.8970 C.3    60  LEU60       0.0270
     60  CG        10.8950   69.4260    3.1230 C.3    60  LEU60       0.0019
     61  CD1       11.8680   70.1080    2.1700 C.3    60  LEU60       0.0001
     62  CD2       11.6670   68.4950    4.0800 C.3    60  LEU60       0.0001
     63  N          6.7520   67.6190    0.6630 N.3    62  PHE62      -0.1241
     64  CA         6.8090   66.1720    0.8480 C.3    62  PHE62       0.1605
     65  C          6.5310   65.4100   -0.4450 C.2    62  PHE62       0.2264
     66  O          5.5920   65.7180   -1.1680 O.2    62  PHE62      -0.2867
     67  CB         5.7960   65.7540    1.9120 C.3    62  PHE62       0.0534
     68  CG         5.8870   64.3090    2.3020 C.ar   62  PHE62      -0.0203
     69  CD1        6.9590   63.8460    3.0540 C.ar   62  PHE62      -0.0042
     70  CD2        4.8980   63.4150    1.9250 C.ar   62  PHE62      -0.0042
     71  CE1        7.0410   62.5050    3.4280 C.ar   62  PHE62      -0.0003
     72  CE2        4.9690   62.0680    2.2940 C.ar   62  PHE62      -0.0003
     73  CZ         6.0430   61.6190    3.0480 C.ar   62  PHE62      -0.0000
     74  N         11.6570   58.5250    3.5380 N.3    78  LEU78      -0.1245
     75  CA        10.8150   59.7070    3.4070 C.3    78  LEU78       0.1561
     76  C         11.5980   60.4720    2.3460 C.2    78  LEU78       0.2260
     77  O         12.8170   60.6430    2.4640 O.2    78  LEU78      -0.2867
     78  CB        10.7250   60.5400    4.6910 C.3    78  LEU78       0.0270
     79  CG        10.0440   59.9140    5.9110 C.3    78  LEU78       0.0019
     80  CD1        9.9440   60.9660    7.0080 C.3    78  LEU78       0.0001
     81  CD2        8.6630   59.3750    5.5520 C.3    78  LEU78       0.0001
     82  N         11.6870   64.0210   -0.1240 N.3    80  SER80      -0.1202
     83  CA        11.1690   65.3910   -0.2030 C.3    80  SER80       0.2020
     84  C         11.9610   66.1910   -1.2240 C.2    80  SER80       0.2619
     85  O         12.9090   65.6730   -1.8220 O.2    80  SER80      -0.2717
     86  CB        11.3040   66.0880    1.1460 C.3    80  SER80       0.2103
     87  OG        12.6530   66.4550    1.3680 O.3    80  SER80      -0.2182
     88  N         11.5810   67.4540   -1.4270 N.am   81  ASP81      -0.1959
     89  CA        12.3150   68.3050   -2.3630 C.3    81  ASP81       0.1840
     90  C         13.7040   68.5170   -1.7730 C.2    81  ASP81       0.2622
     91  O         13.8970   68.4490   -0.5510 O.2    81  ASP81      -0.2715
     92  CB        11.7010   69.7180   -2.5210 C.3    81  ASP81       0.1450
     93  CG        10.2320   69.7140   -2.9200 C.2    81  ASP81       0.3671
     94  OD1        9.7990   68.8540   -3.7130 O.co2  81  ASP81      -0.2456
     95  OD2        9.5060   70.6080   -2.4480 O.co2  81  ASP81      -0.2456
     96  N         14.6620   68.8000   -2.6480 N.am   82  TYR82      -0.1960
     97  CA        16.0440   69.0700   -2.2560 C.3    82  TYR82       0.1771
     98  C         16.2860   70.5790   -2.3730 C.2    82  TYR82       0.2620
     99  O         15.8400   71.2120   -3.3290 O.2    82  TYR82      -0.2715
    100  CB        17.0060   68.3280   -3.1960 C.3    82  TYR82       0.0574
    101  CG        18.4700   68.6580   -2.9840 C.ar   82  TYR82      -0.0198
    102  CD1       19.1860   68.1070   -1.9230 C.ar   82  TYR82      -0.0009
    103  CD2       19.1390   69.5220   -3.8500 C.ar   82  TYR82      -0.0009
    104  CE1       20.5420   68.4090   -1.7320 C.ar   82  TYR82       0.0417
    105  CE2       20.4890   69.8280   -3.6670 C.ar   82  TYR82       0.0417
    106  CZ        21.1800   69.2670   -2.6080 C.ar   82  TYR82       0.1957
    107  OH        22.5090   69.5730   -2.4350 O.3    82  TYR82      -0.2866
    108  N         16.9780   71.1530   -1.3970 N.am   83  HIS83      -0.1959
    109  CA        17.2910   72.5830   -1.4120 C.3    83  HIS83       0.1787
    110  C         18.7880   72.7900   -1.2000 C.2    83  HIS83       0.2620
    111  O         19.2710   72.7500   -0.0750 O.2    83  HIS83      -0.2715
    112  CB        16.5130   73.3160   -0.3200 C.3    83  HIS83       0.0785
    113  CG        15.0390   73.3490   -0.5580 C.ar   83  HIS83       0.0821
    114  ND1       14.1390   72.7260    0.2750 N.ar   83  HIS83      -0.2267
    115  CD2       14.3150   73.8710   -1.5740 C.ar   83  HIS83       0.1154
    116  CE1       12.9200   72.8540   -0.2200 C.ar   83  HIS83       0.1986
    117  NE2       13.0010   73.5440   -1.3410 N.ar   83  HIS83      -0.2212
    118  N         19.5010   73.0270   -2.2970 N.am   84  GLU84      -0.1977
    119  CA        20.9480   73.2240   -2.2940 C.3    84  GLU84       0.1602
    120  C         21.5580   73.9930   -1.1230 C.2    84  GLU84       0.2287
    121  O         22.5780   73.5770   -0.5850 O.2    84  GLU84      -0.2864
    122  CB        21.3690   73.9150   -3.5900 C.3    84  GLU84       0.0415
    123  CG        21.1470   73.1070   -4.8490 C.3    84  GLU84       0.1163
    124  CD        22.4550   72.7240   -5.5270 C.2    84  GLU84       0.3649
    125  OE1       23.2770   73.6360   -5.7950 O.co2  84  GLU84      -0.2457
    126  OE2       22.6550   71.5130   -5.7900 O.co2  84  GLU84      -0.2457
    127  N         20.6310   74.2090    1.8630 N.3    86  GLY86      -0.1210
    128  CA        20.6170   73.4680    3.1070 C.3    86  GLY86       0.1956
    129  C         19.8880   74.2340    4.1990 C.2    86  GLY86       0.2612
    130  O         19.0800   75.1190    3.9130 O.2    86  GLY86      -0.2717
    131  N         20.1990   73.9170    5.4500 N.am   87  SER87      -0.1952
    132  CA        19.5540   74.5500    6.5930 C.3    87  SER87       0.1924
    133  C         19.8200   76.0400    6.7290 C.2    87  SER87       0.2314
    134  O         20.8010   76.5710    6.1970 O.2    87  SER87      -0.2863
    135  CB        19.9900   73.8590    7.8920 C.3    87  SER87       0.2116
    136  OG        21.3400   74.1690    8.1990 O.3    87  SER87      -0.2180
    137  N         18.4710   74.9690   12.4890 N.3   137  LYS137     -0.1231
    138  CA        18.8890   73.7310   11.8350 C.3   137  LYS137      0.1693
    139  C         17.7280   72.9350   11.2450 C.2   137  LYS137      0.2592
    140  O         17.9510   72.0020   10.4750 O.2   137  LYS137     -0.2718
    141  CB        19.6800   72.8410   12.7980 C.3   137  LYS137      0.0285
    142  CG        21.0530   73.3750   13.1700 C.3   137  LYS137      0.0035
    143  CD        21.7360   72.4510   14.1680 C.3   137  LYS137      0.0206
    144  CE        23.0380   73.0400   14.6930 C.3   137  LYS137      0.1093
    145  NZ        23.6190   72.1560   15.7420 N.3   137  LYS137     -0.1314
    146  N         16.4970   73.2990   11.6030 N.am  138  ASN138     -0.1974
    147  CA        15.3120   72.6030   11.0880 C.3   138  ASN138      0.1688
    148  C         14.5020   73.4310   10.0910 C.2   138  ASN138      0.2292
    149  O         13.3440   73.1340    9.8010 O.2   138  ASN138     -0.2864
    150  CB        14.4040   72.1540   12.2390 C.3   138  ASN138      0.1181
    151  CG        14.9620   70.9550   12.9760 C.2   138  ASN138      0.2629
    152  OD1       15.8210   70.2400   12.4460 O.2   138  ASN138     -0.2716
    153  ND2       14.4680   70.7090   14.1870 N.am  138  ASN138     -0.0877
    154  N         14.9620   75.3010    6.1720 N.3   140  LEU140     -0.1245
    155  CA        15.7900   75.2220    4.9620 C.3   140  LEU140      0.1561
    156  C         15.6170   76.4660    4.1040 C.2   140  LEU140      0.2260
    157  O         14.5340   77.0220    4.0470 O.2   140  LEU140     -0.2867
    158  CB        15.3880   73.9910    4.1470 C.3   140  LEU140      0.0270
    159  CG        15.4850   72.7030    4.9530 C.3   140  LEU140      0.0019
    160  CD1       14.6940   71.5960    4.2750 C.3   140  LEU140      0.0001
    161  CD2       16.9480   72.3270    5.1040 C.3   140  LEU140      0.0001
    162  N         11.0580   72.2680    8.1400 N.3   150  ALA150     -0.1231
    163  CA        11.1910   70.8170    7.9970 C.3   150  ALA150      0.1694
    164  C         11.1690   70.1140    9.3520 C.2   150  ALA150      0.2592
    165  O         10.8470   70.7300   10.3630 O.2   150  ALA150     -0.2718
    166  CB        12.4860   70.4860    7.2580 C.3   150  ALA150      0.0304
    167  N         11.5210   68.8280    9.3670 N.am  151  ASP151     -0.1974
    168  CA        11.5310   68.0280   10.5990 C.3   151  ASP151      0.1709
    169  C         10.2700   68.1950   11.4400 C.2   151  ASP151      0.2293
    170  O         10.2970   68.8020   12.5110 O.2   151  ASP151     -0.2864
    171  CB        12.7610   68.3670   11.4410 C.3   151  ASP151      0.1436
    172  CG        13.8670   67.3340   11.2890 C.2   151  ASP151      0.3671
    173  OD1       13.6850   66.2120   11.7750 O.co2 151  ASP151     -0.2456
    174  OD2       14.9060   67.6450   10.6860 O.co2 151  ASP151     -0.2456
@<TRIPOS>BOND
     1   125   124   ar
     2   126   124   ar
     3   124   123    1
     4   123   122    1
     5   103   105   ar
     6   103   101   ar
     7    94    93   ar
     8   105   106   ar
     9   122   119    1
    10    99    98    2
    11   100   101    1
    12   100    97    1
    13   101   102   ar
    14    93    92    1
    15    93    95   ar
    16    96    97    1
    17    96    90   am
    18   106   107    1
    19   106   104   ar
    20    92    89    1
    21    98    97    1
    22    98   108   am
    23    89    90    1
    24    89    88    1
    25   118   119    1
    26   118   110   am
    27   119   120    1
    28   102   104   ar
    29    85    84    2
    30    90    91    2
    31    20    21    1
    32   115   117   ar
    33   115   113   ar
    34    88    84   am
    35   109   108    1
    36   109   110    1
    37   109   112    1
    38   117   116   ar
    39    84    83    1
    40   110   111    2
    41    66    65    2
    42   120   121    2
    43   113   112    1
    44   113   114   ar
    45    65    64    1
    46    21    22    1
    47    21    24    1
    48   116   114   ar
    49    83    82    1
    50    83    86    1
    51    23    22    2
    52    63    64    1
    53    64    67    1
    54    86    87    1
    55     7     5    1
    56     8     6    1
    57   127   128    1
    58    67    68    1
    59    70    72   ar
    60    70    68   ar
    61    61    60    1
    62    57    58    2
    63    57    56    1
    64    72    73   ar
    65    68    69   ar
    66    76    77    2
    67    76    75    1
    68     6     5    1
    69     5     2    1
    70    73    71   ar
    71    69    71   ar
    72    56    59    1
    73    56    55    1
    74   128   129    1
    75    60    59    1
    76    60    62    1
    77    75    74    1
    78    75    78    1
    79    25    26    1
    80     1     2    1
    81     2     3    1
    82   130   129    2
    83   157   156    2
    84    18    17    1
    85   156   155    1
    86   158   159    1
    87   158   155    1
    88    15    16    2
    89    15    14    1
    90   129   131   am
    91   160   159    1
    92    46    45    2
    93    78    79    1
    94   159   161    1
    95   155   154    1
    96    26    27    1
    97    26    29    1
    98    28    27    2
    99     3     4    2
   100     3     9    1
   101    14    17    1
   102    14    13    1
   103    49    51   ar
   104    49    48   ar
   105    45    44    1
   106    17    19    1
   107   131   132    1
   108    51    53   ar
   109    81    79    1
   110    47    48    1
   111    47    44    1
   112    48    50   ar
   113    29    30    1
   114    79    80    1
   115     9    10    2
   116   134   133    2
   117    44    43    1
   118    53    54    1
   119    53    52   ar
   120   132   133    1
   121   132   135    1
   122    50    52   ar
   123   166   163    1
   124    30    31    1
   125    10    11    1
   126    12    11    2
   127   135   136    1
   128   163   162    1
   129   163   164    1
   130    31    32    1
   131    32    33    1
   132    37    36    2
   133    36    35    1
   134    39    40    1
   135    39    38    1
   136    42    40   ar
   137   164   167   am
   138   164   165    2
   139   167   168    1
   140    40    41   ar
   141   149   148    2
   142   148   147    1
   143    38    35    1
   144    35    34    1
   145   140   139    2
   146   168   169    1
   147   168   171    1
   148   174   172   ar
   149   147   146    1
   150   147   150    1
   151   139   146   am
   152   139   138    1
   153   172   171    1
   154   172   173   ar
   155   169   170    2
   156   138   137    1
   157   138   141    1
   158   150   151    1
   159   152   151    2
   160   141   142    1
   161   151   153   am
   162   142   143    1
   163   143   144    1
   164   144   145    1
