@<TRIPOS>MOLECULE
tmp/1vk5A00.pdb
 119 119 0 0 0
SMALL
GASTEIGER

@<TRIPOS>ATOM
      1  N         35.1260   39.3300  -18.7470 N.3     6  ARG6       -0.1245
      2  CA        35.2640   38.2600  -17.7780 C.3     6  ARG6        0.1563
      3  C         33.8890   37.9780  -17.1480 C.2     6  ARG6        0.2260
      4  O         33.6160   36.8210  -16.8370 O.2     6  ARG6       -0.2867
      5  CB        36.3230   38.5500  -16.7250 C.3     6  ARG6        0.0307
      6  CG        36.0200   39.7220  -15.7780 C.3     6  ARG6        0.0489
      7  CD        37.2540   40.1740  -14.9910 C.3     6  ARG6        0.2205
      8  NE        38.1930   40.8300  -15.9320 N.pl3   6  ARG6       -0.0865
      9  CZ        39.4080   41.2120  -15.5600 C.cat   6  ARG6        0.5346
     10  NH1       39.8500   41.0110  -14.3220 N.pl3   6  ARG6        0.1354
     11  NH2       40.1870   41.8110  -16.4630 N.pl3   6  ARG6        0.1354
     12  N         31.9430   35.7420  -19.6470 N.3     9  MET9       -0.1230
     13  CA        32.4330   34.3820  -19.6270 C.3     9  MET9        0.1702
     14  C         32.0350   33.6500  -18.3360 C.2     9  MET9        0.2592
     15  O         31.7460   32.4580  -18.3800 O.2     9  MET9       -0.2718
     16  CB        33.9610   34.3930  -19.7990 C.3     9  MET9        0.0401
     17  CG        34.3280   34.8920  -21.1930 C.3     9  MET9        0.0596
     18  SD        36.1870   34.8330  -21.3910 S.3     9  MET9       -0.1393
     19  CE        36.4010   33.3410  -21.5270 C.3     9  MET9        0.0692
     20  N         32.0890   34.3860  -17.2270 N.am   10  TYR10      -0.1976
     21  CA        31.7920   33.7760  -15.9420 C.3    10  TYR10       0.1639
     22  C         30.3070   33.3460  -15.8680 C.2    10  TYR10       0.2290
     23  O         30.0270   32.2190  -15.5120 O.2    10  TYR10      -0.2864
     24  CB        32.1030   34.7750  -14.8140 C.3    10  TYR10       0.0560
     25  CG        31.7660   34.1870  -13.4750 C.ar   10  TYR10      -0.0198
     26  CD1       32.5940   33.2380  -12.8820 C.ar   10  TYR10      -0.0009
     27  CD2       30.6210   34.5850  -12.7880 C.ar   10  TYR10      -0.0009
     28  CE1       32.3100   32.6660  -11.6250 C.ar   10  TYR10       0.0417
     29  CE2       30.3160   34.0180  -11.5480 C.ar   10  TYR10       0.0417
     30  CZ        31.1590   33.0840  -10.9620 C.ar   10  TYR10       0.1957
     31  OH        30.8670   32.5290   -9.7670 O.3    10  TYR10      -0.2866
     32  N         29.4010   30.4670  -18.0970 N.3    13  TYR13      -0.1241
     33  CA        29.8440   29.2000  -17.5600 C.3    13  TYR13       0.1605
     34  C         28.9160   28.7330  -16.4130 C.2    13  TYR13       0.2264
     35  O         28.4190   27.5990  -16.4220 O.2    13  TYR13      -0.2867
     36  CB        31.2900   29.3380  -17.0290 C.3    13  TYR13       0.0534
     37  CG        31.8570   28.0580  -16.4980 C.ar   13  TYR13      -0.0201
     38  CD1       32.5600   27.1900  -17.3410 C.ar   13  TYR13      -0.0009
     39  CD2       31.7130   27.7070  -15.1510 C.ar   13  TYR13      -0.0009
     40  CE1       33.1050   26.0220  -16.8460 C.ar   13  TYR13       0.0417
     41  CE2       32.2330   26.5220  -14.6340 C.ar   13  TYR13       0.0417
     42  CZ        32.9270   25.6800  -15.5060 C.ar   13  TYR13       0.1957
     43  OH        33.4730   24.5060  -15.0520 O.3    13  TYR13      -0.2866
     44  N         25.3990   27.2470  -17.0190 N.3    16  GLN16      -0.1245
     45  CA        25.3630   25.8980  -17.5690 C.3    16  GLN16       0.1566
     46  C         25.6970   24.7950  -16.6110 C.2    16  GLN16       0.2260
     47  O         25.6390   23.6210  -17.0000 O.2    16  GLN16      -0.2867
     48  CB        26.2950   25.7890  -18.8100 C.3    16  GLN16       0.0367
     49  CG        25.8780   26.6900  -19.9130 C.3    16  GLN16       0.0905
     50  CD        26.8140   26.5610  -21.1170 C.2    16  GLN16       0.2608
     51  OE1       26.7140   25.5890  -21.8820 O.2    16  GLN16      -0.2717
     52  NE2       27.7390   27.5140  -21.2720 N.am   16  GLN16      -0.0878
     53  N         31.3790   43.7440   -9.5360 N.3   105  TRP105     -0.1241
     54  CA        32.8090   43.5480   -9.4150 C.3   105  TRP105      0.1605
     55  C         33.6110   44.8770   -9.4880 C.2   105  TRP105      0.2264
     56  O         34.6410   45.0030   -8.8350 O.2   105  TRP105     -0.2867
     57  CB        33.2920   42.5300  -10.4490 C.3   105  TRP105      0.0550
     58  CG        32.7040   41.1650  -10.2510 C.ar  105  TRP105      0.0003
     59  CD1       31.9810   40.6890   -9.1610 C.ar  105  TRP105      0.0946
     60  CD2       32.7910   40.0840  -11.1810 C.ar  105  TRP105      0.0152
     61  NE1       31.6500   39.3690   -9.3550 N.ar  105  TRP105     -0.2442
     62  CE2       32.1370   38.9560  -10.5800 C.ar  105  TRP105      0.0810
     63  CE3       33.4000   39.9300  -12.4380 C.ar  105  TRP105      0.0012
     64  CZ2       32.0340   37.7210  -11.2190 C.ar  105  TRP105      0.0191
     65  CZ3       33.3230   38.6960  -13.0890 C.ar  105  TRP105      0.0001
     66  CH2       32.6430   37.5860  -12.4680 C.ar  105  TRP105      0.0015
     67  N         36.6580   40.9990   -5.3920 N.3   111  TYR111     -0.1227
     68  CA        35.6590   40.1130   -6.0250 C.3   111  TYR111      0.1736
     69  C         36.2220   38.7480   -6.4100 C.2   111  TYR111      0.2595
     70  O         35.5500   37.7260   -6.2900 O.2   111  TYR111     -0.2718
     71  CB        34.9890   40.7710   -7.2510 C.3   111  TYR111      0.0548
     72  CG        35.9230   40.8940   -8.4610 C.ar  111  TYR111     -0.0200
     73  CD1       35.9400   39.9280   -9.4420 C.ar  111  TYR111     -0.0009
     74  CD2       36.7900   41.9730   -8.5580 C.ar  111  TYR111     -0.0009
     75  CE1       36.8240   40.0110  -10.5520 C.ar  111  TYR111      0.0417
     76  CE2       37.6570   42.0920   -9.6630 C.ar  111  TYR111      0.0417
     77  CZ        37.6550   41.1000  -10.6420 C.ar  111  TYR111      0.1957
     78  OH        38.5190   41.2130  -11.7270 O.3   111  TYR111     -0.2866
     79  N         37.4910   38.7190   -6.8500 N.am  112  HIS112     -0.1975
     80  CA        38.0840   37.4540   -7.2540 C.3   112  HIS112      0.1656
     81  C         38.1670   36.4190   -6.1230 C.2   112  HIS112      0.2291
     82  O         38.2360   35.2150   -6.3850 O.2   112  HIS112     -0.2864
     83  CB        39.4970   37.7210   -7.8400 C.3   112  HIS112      0.0771
     84  CG        40.4190   38.3240   -6.8450 C.ar  112  HIS112      0.0820
     85  ND1       40.4470   39.6720   -6.5690 N.ar  112  HIS112     -0.2267
     86  CD2       41.2410   37.7340   -5.9550 C.ar  112  HIS112      0.1154
     87  CE1       41.3060   39.8960   -5.5970 C.ar  112  HIS112      0.1986
     88  NE2       41.7900   38.7360   -5.1950 N.ar  112  HIS112     -0.2212
     89  N         35.2500   33.9420   -6.1540 N.3   115  ILE115     -0.1231
     90  CA        35.0640   33.1520   -7.3540 C.3   115  ILE115      0.1692
     91  C         35.8700   31.8670   -7.2020 C.2   115  ILE115      0.2592
     92  O         37.0810   31.9060   -6.9080 O.2   115  ILE115     -0.2718
     93  CB        35.5140   33.9350   -8.6020 C.3   115  ILE115      0.0266
     94  CG1       34.6080   35.1730   -8.7920 C.3   115  ILE115      0.0019
     95  CG2       35.5500   32.9830   -9.8420 C.3   115  ILE115      0.0020
     96  CD1       35.0580   36.1350   -9.9550 C.3   115  ILE115      0.0001
     97  N         35.2120   30.7400   -7.3760 N.am  116  ASP116     -0.1960
     98  CA        35.9050   29.4450   -7.2020 C.3   116  ASP116      0.1825
     99  C         36.8380   29.1660   -8.3820 C.2   116  ASP116      0.2464
    100  O         36.5990   29.6160   -9.5050 O.2   116  ASP116     -0.2730
    101  CB        34.9020   28.3230   -7.1200 C.3   116  ASP116      0.1450
    102  CG        34.1320   28.2970   -5.8210 C.2   116  ASP116      0.3671
    103  OD1       34.6090   28.8490   -4.8020 O.co2 116  ASP116     -0.2456
    104  OD2       33.0470   27.6800   -5.7240 O.co2 116  ASP116     -0.2456
    105  N         37.8920   28.4010   -8.1250 N.am  117  PRO117     -0.2715
    106  CA        38.7140   27.9270   -9.2350 C.3   117  PRO117      0.1536
    107  C         37.9300   26.9540  -10.0980 C.2   117  PRO117      0.2598
    108  O         36.7980   26.5490   -9.7720 O.2   117  PRO117     -0.2715
    109  CB        39.8820   27.2230   -8.5230 C.3   117  PRO117      0.0310
    110  CG        39.3240   26.7940   -7.2360 C.3   117  PRO117      0.0237
    111  CD        38.3480   27.8910   -6.8170 C.3   117  PRO117      0.0939
    112  N         38.5070   26.5970  -11.2480 N.am  118  ILE118     -0.1978
    113  CA        37.9230   25.5410  -12.0830 C.3   118  ILE118      0.1596
    114  C         38.0150   24.1680  -11.4090 C.2   118  ILE118      0.2287
    115  O         39.0540   23.8260  -10.7940 O.2   118  ILE118     -0.2864
    116  CB        38.5950   25.5380  -13.4960 C.3   118  ILE118      0.0276
    117  CG1       38.2750   26.8520  -14.2070 C.3   118  ILE118      0.0022
    118  CG2       38.1180   24.3430  -14.3460 C.3   118  ILE118      0.0022
    119  CD1       36.9480   26.8270  -14.9300 C.3   118  ILE118      0.0001
@<TRIPOS>BOND
     1    51    50    2
     2    19    18    1
     3    18    17    1
     4    52    50   am
     5    17    16    1
     6    50    49    1
     7    49    48    1
     8    16    13    1
     9    12    13    1
    10    13    14    1
    11    48    45    1
    12     1     2    1
    13    15    14    2
    14    14    20   am
    15    32    33    1
    16     2     3    1
    17     2     5    1
    18    45    44    1
    19    45    46    1
    20    33    36    1
    21    33    34    1
    22    38    40   ar
    23    38    37   ar
    24    20    21    1
    25     3     4    2
    26    36    37    1
    27    47    46    2
    28    40    42   ar
    29     5     6    1
    30    37    39   ar
    31    11     9    1
    32    35    34    2
    33    21    22    1
    34    21    24    1
    35     8     9    2
    36     8     7    1
    37    22    23    2
    38     6     7    1
    39     9    10    1
    40    42    43    1
    41    42    41   ar
    42    39    41   ar
    43   119   117    1
    44    24    25    1
    45   118   116    1
    46   117   116    1
    47   116   113    1
    48    25    26   ar
    49    25    27   ar
    50    65    66   ar
    51    65    63   ar
    52    26    28   ar
    53    27    29   ar
    54    66    64   ar
    55    63    60   ar
    56   113   114    1
    57   113   112    1
    58    78    77    1
    59    28    30   ar
    60    29    30   ar
    61   114   115    2
    62   112   107   am
    63    64    62   ar
    64    60    62   ar
    65    60    58   ar
    66    30    31    1
    67    77    75   ar
    68    77    76   ar
    69    62    61   ar
    70    75    73   ar
    71    57    58    1
    72    57    54    1
    73    58    59   ar
    74   107   108    2
    75   107   106    1
    76    96    94    1
    77    95    93    1
    78    76    74   ar
    79    53    54    1
    80   100    99    2
    81    55    54    1
    82    55    56    2
    83    73    72   ar
    84    61    59   ar
    85   106   109    1
    86   106   105    1
    87    94    93    1
    88    93    90    1
    89    74    72   ar
    90   109   110    1
    91    72    71    1
    92    99   105   am
    93    99    98    1
    94   105   111    1
    95    83    80    1
    96    83    84    1
    97    97    91   am
    98    97    98    1
    99    90    91    1
   100    90    89    1
   101    80    79    1
   102    80    81    1
   103    71    68    1
   104   110   111    1
   105    91    92    2
   106    98   101    1
   107   101   102    1
   108    79    69   am
   109    84    85   ar
   110    84    86   ar
   111    85    87   ar
   112    69    70    2
   113    69    68    1
   114    82    81    2
   115    68    67    1
   116    86    88   ar
   117   102   104   ar
   118   102   103   ar
   119    87    88   ar
