@<TRIPOS>MOLECULE
tmp/1vk6A02.pdb
 95 93 0 0 0
SMALL
GASTEIGER

@<TRIPOS>ATOM
      1  N         84.3620   55.9380   10.1300 N.3    68  ARG68      -0.1245
      2  CA        85.3060   57.0610   10.2230 C.3    68  ARG68       0.1563
      3  C         85.7650   57.3200   11.6500 C.2    68  ARG68       0.2260
      4  O         86.8970   57.7410   11.8330 O.2    68  ARG68      -0.2867
      5  CB        84.7520   58.3670    9.6620 C.3    68  ARG68       0.0307
      6  CG        84.6640   58.3280    8.1490 C.3    68  ARG68       0.0489
      7  CD        83.5890   59.2860    7.6260 C.3    68  ARG68       0.2205
      8  NE        83.4090   59.0050    6.2020 N.pl3  68  ARG68      -0.0865
      9  CZ        82.6490   58.0640    5.6660 C.cat  68  ARG68       0.5346
     10  NH1       81.8930   57.2750    6.4270 N.pl3  68  ARG68       0.1354
     11  NH2       82.6290   57.9120    4.3420 N.pl3  68  ARG68       0.1354
     12  N         90.4610   57.3040   -6.4720 N.3   127  CYS127     -0.1235
     13  CA        90.1320   58.5690   -5.8800 C.3   127  CYS127      0.1677
     14  C         91.3540   59.4650   -5.9370 C.2   127  CYS127      0.2270
     15  O         92.4510   58.9740   -5.7860 O.2   127  CYS127     -0.2867
     16  CB        89.9100   58.2790   -4.3920 C.3   127  CYS127      0.0956
     17  SG        88.3800   58.9520   -3.8600 S.3   127  CYS127     -0.0801
     18  N         83.8580   70.2990    4.8190 N.3   143  HIS143     -0.1241
     19  CA        82.9570   69.5740    3.9490 C.3   143  HIS143      0.1621
     20  C         81.5570   69.5210    4.5290 C.2   143  HIS143      0.2264
     21  O         81.3870   69.4620    5.7500 O.2   143  HIS143     -0.2867
     22  CB        83.5130   68.1780    3.7170 C.3   143  HIS143      0.0745
     23  CG        84.7630   68.1670    2.8950 C.ar  143  HIS143      0.0817
     24  ND1       85.9540   68.7020    3.3420 N.ar  143  HIS143     -0.2268
     25  CD2       85.0030   67.7020    1.6460 C.ar  143  HIS143      0.1154
     26  CE1       86.8760   68.5600    2.4060 C.ar  143  HIS143      0.1986
     27  NE2       86.3250   67.9560    1.3660 N.ar  143  HIS143     -0.2212
     28  N         79.3800   67.0770    3.9890 N.3   145  ARG145     -0.1231
     29  CA        79.1690   65.6850    4.3800 C.3   145  ARG145      0.1694
     30  C         79.4560   65.4420    5.8570 C.2   145  ARG145      0.2592
     31  O         78.6300   64.8720    6.5730 O.2   145  ARG145     -0.2718
     32  CB        80.0250   64.7500    3.5180 C.3   145  ARG145      0.0321
     33  CG        79.8480   64.9520    2.0130 C.3   145  ARG145      0.0489
     34  CD        78.7230   64.1140    1.3770 C.3   145  ARG145      0.2205
     35  NE        78.1040   64.7610    0.2100 N.pl3 145  ARG145     -0.0865
     36  CZ        78.6430   64.8430   -1.0130 C.cat 145  ARG145      0.5346
     37  NH1       79.8450   64.3360   -1.2700 N.pl3 145  ARG145      0.1354
     38  NH2       77.9750   65.4520   -1.9880 N.pl3 145  ARG145      0.1354
     39  N         80.6090   65.8970    6.3240 N.am  146  HIS146     -0.1976
     40  CA        81.0170   65.6040    7.6920 C.3   146  HIS146      0.1656
     41  C         80.4720   66.5880    8.7260 C.2   146  HIS146      0.2291
     42  O         79.8760   66.1660    9.7140 O.2   146  HIS146     -0.2864
     43  CB        82.5370   65.4470    7.7770 C.3   146  HIS146      0.0771
     44  CG        83.0550   64.4370    6.7890 C.ar  146  HIS146      0.0820
     45  ND1       82.4510   63.2200    6.5850 N.ar  146  HIS146     -0.2267
     46  CD2       84.1310   64.4940    5.9570 C.ar  146  HIS146      0.1154
     47  CE1       83.1290   62.5670    5.6450 C.ar  146  HIS146      0.1986
     48  NE2       84.1490   63.3180    5.2570 N.ar  146  HIS146     -0.2212
     49  N         89.3140   66.2740   -2.2680 N.3   155  ALA155     -0.1231
     50  CA        89.3210   64.9110   -2.7810 C.3   155  ALA155      0.1694
     51  C         88.0570   64.5890   -3.6480 C.2   155  ALA155      0.2593
     52  O         86.9600   65.1340   -3.4280 O.2   155  ALA155     -0.2718
     53  CB        89.4480   63.9120   -1.6200 C.3   155  ALA155      0.0304
     54  N         88.2130   63.6970   -4.6200 N.am  156  GLY156     -0.1942
     55  CA        87.0480   63.2320   -5.3910 C.3   156  GLY156      0.2014
     56  C         87.3070   61.9480   -6.1580 C.2   156  GLY156      0.2638
     57  O         88.4670   61.5540   -6.3810 O.2   156  GLY156     -0.2714
     58  N         86.2280   61.2970   -6.5740 N.am  157  PHE157     -0.1973
     59  CA        86.3140   60.0860   -7.4020 C.3   157  PHE157      0.1639
     60  C         86.8430   60.3490   -8.8130 C.2   157  PHE157      0.2290
     61  O         86.5190   61.3570   -9.4280 O.2   157  PHE157     -0.2864
     62  CB        84.9650   59.3380   -7.4110 C.3   157  PHE157      0.0560
     63  CG        84.6760   58.6590   -6.1060 C.ar  157  PHE157     -0.0200
     64  CD1       85.4790   57.6230   -5.6640 C.ar  157  PHE157     -0.0042
     65  CD2       83.6470   59.0970   -5.2970 C.ar  157  PHE157     -0.0042
     66  CE1       85.2610   57.0240   -4.4280 C.ar  157  PHE157     -0.0003
     67  CE2       83.4080   58.5040   -4.0850 C.ar  157  PHE157     -0.0003
     68  CZ        84.2320   57.4790   -3.6300 C.ar  157  PHE157     -0.0000
     69  N         91.4910   53.2810    1.0930 N.3   190  TRP190     -0.1241
     70  CA        90.4640   53.7240    2.0200 C.3   190  TRP190      0.1605
     71  C         89.4080   52.5920    2.0790 C.2   190  TRP190      0.2264
     72  O         89.0560   52.0390    1.0510 O.2   190  TRP190     -0.2867
     73  CB        89.8810   55.0350    1.4970 C.3   190  TRP190      0.0550
     74  CG        88.7830   55.5440    2.3660 C.ar  190  TRP190      0.0003
     75  CD1       87.4770   55.2280    2.2900 C.ar  190  TRP190      0.0946
     76  CD2       88.9170   56.4550    3.4580 C.ar  190  TRP190      0.0152
     77  NE1       86.7630   55.8890    3.2610 N.ar  190  TRP190     -0.2442
     78  CE2       87.6300   56.6470    4.0010 C.ar  190  TRP190      0.0810
     79  CE3       90.0030   57.1410    4.0310 C.ar  190  TRP190      0.0012
     80  CZ2       87.3860   57.5030    5.0890 C.ar  190  TRP190      0.0191
     81  CZ3       89.7680   57.9860    5.1010 C.ar  190  TRP190      0.0001
     82  CH2       88.4590   58.1640    5.6170 C.ar  190  TRP190      0.0015
     83  N         83.5880   53.8780    1.6930 N.3   193  PRO193     -0.2116
     84  CA        83.5310   52.9730    0.5300 C.3   193  PRO193      0.1372
     85  C         84.9290   52.6000    0.0400 C.2   193  PRO193      0.2244
     86  O         85.8150   53.4680   -0.0250 O.2   193  PRO193     -0.2868
     87  CB        82.8420   53.8420   -0.5630 C.3   193  PRO193      0.0268
     88  CG        83.2550   55.3080   -0.1520 C.3   193  PRO193      0.0207
     89  CD        83.1210   55.2460    1.3750 C.3   193  PRO193      0.0892
     90  N         88.2300   52.2050   -1.6100 N.3   195  SER195     -0.1217
     91  CA        88.8120   53.1250   -2.5750 C.3   195  SER195      0.1889
     92  C         90.3250   53.0850   -2.5620 C.2   195  SER195      0.2288
     93  O         90.9390   52.6150   -1.5970 O.2   195  SER195     -0.2866
     94  CB        88.4010   54.5690   -2.2580 C.3   195  SER195      0.2089
     95  OG        87.0310   54.6940   -1.9810 O.3   195  SER195     -0.2183
@<TRIPOS>BOND
     1    61    60    2
     2    60    59    1
     3    62    59    1
     4    62    63    1
     5    59    58    1
     6    58    56   am
     7    12    13    1
     8    57    56    2
     9    56    55    1
    10    63    64   ar
    11    63    65   ar
    12    14    13    1
    13    14    15    2
    14    13    16    1
    15    64    66   ar
    16    55    54    1
    17    65    67   ar
    18    54    51   am
    19    66    68   ar
    20    16    17    1
    21    67    68   ar
    22    51    52    2
    23    51    50    1
    24    50    49    1
    25    50    53    1
    26    91    92    1
    27    91    94    1
    28    91    90    1
    29    92    93    2
    30    94    95    1
    31    38    36    1
    32    37    36    1
    33    36    35    2
    34    87    88    1
    35    87    84    1
    36    88    89    1
    37    86    85    2
    38    85    84    1
    39    35    34    1
    40    84    83    1
    41    72    71    2
    42    69    70    1
    43    27    25   ar
    44    27    26   ar
    45    89    83    1
    46    34    33    1
    47    73    70    1
    48    73    74    1
    49    25    23   ar
    50    33    32    1
    51    70    71    1
    52    75    74   ar
    53    75    77   ar
    54    74    76   ar
    55    26    24   ar
    56    23    24   ar
    57    23    22    1
    58    77    78   ar
    59    76    78   ar
    60    76    79   ar
    61    32    29    1
    62    22    19    1
    63    19    20    1
    64    19    18    1
    65    28    29    1
    66    78    80   ar
    67    79    81   ar
    68    11     9    1
    69    29    30    1
    70    20    21    2
    71    80    82   ar
    72    81    82   ar
    73    48    47   ar
    74    48    46   ar
    75    47    45   ar
    76     9     8    2
    77     9    10    1
    78    30    39   am
    79    30    31    2
    80    46    44   ar
    81     8     7    1
    82    39    40    1
    83    45    44   ar
    84    44    43    1
    85     7     6    1
    86    40    43    1
    87    40    41    1
    88     6     5    1
    89    41    42    2
    90     5     2    1
    91     1     2    1
    92     2     3    1
    93     3     4    2
