@<TRIPOS>MOLECULE
tmp/1vk8B00.pdb
 99 95 0 0 0
SMALL
GASTEIGER

@<TRIPOS>ATOM
      1  N         32.2630   26.9860   43.9020 N.3     7  ILE7       -0.1231
      2  CA        31.8710   26.1990   45.0540 C.3     7  ILE7        0.1692
      3  C         31.3160   27.1390   46.1170 C.2     7  ILE7        0.2592
      4  O         31.9680   28.1170   46.5160 O.2     7  ILE7       -0.2718
      5  CB        33.0980   25.4110   45.6020 C.3     7  ILE7        0.0266
      6  CG1       33.6880   24.4980   44.5300 C.3     7  ILE7        0.0019
      7  CG2       32.7340   24.5780   46.8960 C.3     7  ILE7        0.0020
      8  CD1       34.9810   23.8630   44.9600 C.3     7  ILE7        0.0001
      9  N         30.1160   26.8300   46.5980 N.am    8  LYS8       -0.1966
     10  CA        29.4760   27.5480   47.6970 C.3     8  LYS8        0.1728
     11  C         29.1030   26.5980   48.8180 C.2     8  LYS8        0.2616
     12  O         28.4900   25.5670   48.5750 O.2     8  LYS8       -0.2715
     13  CB        28.2130   28.2520   47.1910 C.3     8  LYS8        0.0311
     14  CG        27.4980   29.1030   48.1940 C.3     8  LYS8        0.0038
     15  CD        26.2270   29.7410   47.6400 C.3     8  LYS8        0.0206
     16  CE        25.7310   30.8130   48.5810 C.3     8  LYS8        0.1093
     17  NZ        26.3510   32.1530   48.2720 N.3     8  LYS8       -0.1314
     18  N         29.5020   26.9400   50.0410 N.am    9  VAL9       -0.1963
     19  CA        29.0990   26.2010   51.2280 C.3     9  VAL9        0.1727
     20  C         28.1730   27.0880   52.0370 C.2     9  VAL9        0.2616
     21  O         28.4800   28.2480   52.3300 O.2     9  VAL9       -0.2715
     22  CB        30.3060   25.7500   52.0660 C.3     9  VAL9        0.0290
     23  CG1       29.8440   24.9200   53.2740 C.3     9  VAL9        0.0023
     24  CG2       31.3000   24.9430   51.1970 C.3     9  VAL9        0.0023
     25  N         27.0230   26.5450   52.3920 N.am   10  VAL10      -0.1977
     26  CA        26.0870   27.2300   53.2800 C.3    10  VAL10       0.1596
     27  C         25.7730   26.3110   54.4760 C.2    10  VAL10       0.2287
     28  O         24.9080   25.4420   54.3930 O.2    10  VAL10      -0.2864
     29  CB        24.7910   27.6210   52.5500 C.3    10  VAL10       0.0276
     30  CG1       23.9900   28.5780   53.4200 C.3    10  VAL10       0.0022
     31  CG2       25.0950   28.2000   51.1830 C.3    10  VAL10       0.0022
     32  N         32.9890   28.7170   56.4920 N.3    22  ILE22      -0.1245
     33  CA        33.3680   29.0970   55.1510 C.3    22  ILE22       0.1561
     34  C         34.8800   29.2920   54.9990 C.2    22  ILE22       0.2260
     35  O         35.4680   28.8690   54.0060 O.2    22  ILE22      -0.2867
     36  CB        32.6090   30.3850   54.7440 C.3    22  ILE22       0.0252
     37  CG1       31.0880   30.1860   54.7430 C.3    22  ILE22       0.0019
     38  CG2       33.0770   30.8730   53.3820 C.3    22  ILE22       0.0019
     39  CD1       30.6320   28.8790   54.2830 C.3    22  ILE22       0.0001
     40  N         36.5070   25.9560   54.5590 N.3    25  ALA25      -0.1231
     41  CA        36.2680   25.4970   53.1940 C.3    25  ALA25       0.1694
     42  C         37.2600   26.1430   52.2090 C.2    25  ALA25       0.2591
     43  O         37.8950   25.4510   51.4030 O.2    25  ALA25      -0.2718
     44  CB        34.8810   25.7540   52.7940 C.3    25  ALA25       0.0304
     45  N         37.4060   27.4580   52.3000 N.am   26  ILE26      -0.1980
     46  CA        38.3570   28.2000   51.4590 C.3    26  ILE26       0.1595
     47  C         39.7950   27.7590   51.6560 C.2    26  ILE26       0.2287
     48  O         40.5060   27.4830   50.6960 O.2    26  ILE26      -0.2864
     49  CB        38.1960   29.7220   51.6570 C.3    26  ILE26       0.0276
     50  CG1       36.8210   30.1530   51.1620 C.3    26  ILE26       0.0022
     51  CG2       39.2790   30.5220   50.8610 C.3    26  ILE26       0.0022
     52  CD1       36.4170   31.4870   51.7010 C.3    26  ILE26       0.0001
     53  N         40.2240   24.4010   50.0170 N.3    29  ILE29      -0.1245
     54  CA        40.2820   24.5350   48.5570 C.3    29  ILE29       0.1561
     55  C         41.6650   25.0490   48.0790 C.2    29  ILE29       0.2260
     56  O         42.1830   24.6350   47.0350 O.2    29  ILE29      -0.2867
     57  CB        39.1390   25.4860   48.0890 C.3    29  ILE29       0.0252
     58  CG1       37.7800   24.7780   48.1970 C.3    29  ILE29       0.0019
     59  CG2       39.3120   25.9090   46.6430 C.3    29  ILE29       0.0019
     60  CD1       36.5560   25.7260   48.0840 C.3    29  ILE29       0.0001
     61  N         38.4850   33.6170   45.2390 N.3    37  VAL37      -0.1231
     62  CA        37.4250   33.7760   46.2080 C.3    37  VAL37       0.1692
     63  C         36.5680   34.9720   45.8040 C.2    37  VAL37       0.2593
     64  O         37.0650   36.0570   45.6190 O.2    37  VAL37      -0.2718
     65  CB        37.9450   34.0180   47.6390 C.3    37  VAL37       0.0266
     66  CG1       36.7830   34.1230   48.6040 C.3    37  VAL37       0.0020
     67  CG2       38.8690   32.8830   48.0650 C.3    37  VAL37       0.0020
     68  N         35.2800   34.7590   45.7000 N.am   38  GLY38      -0.1943
     69  CA        34.3420   35.8350   45.4010 C.3    38  GLY38       0.1998
     70  C         33.3840   36.0440   46.5480 C.2    38  GLY38       0.2481
     71  O         33.4250   35.3010   47.5220 O.2    38  GLY38      -0.2729
     72  N         32.4870   37.0240   46.4340 N.am   39  PRO39      -0.2715
     73  CA        31.5270   37.2880   47.5050 C.3    39  PRO39       0.1536
     74  C         30.5530   36.1510   47.7640 C.2    39  PRO39       0.2599
     75  O         30.0960   36.0290   48.8840 O.2    39  PRO39      -0.2715
     76  CB        30.7890   38.5660   47.0440 C.3    39  PRO39       0.0310
     77  CG        31.4580   39.0250   45.7880 C.3    39  PRO39       0.0237
     78  CD        32.3390   37.9550   45.2980 C.3    39  PRO39       0.0939
     79  N         30.2760   35.2910   46.7860 N.am   40  SER40      -0.1936
     80  CA        29.2460   34.2850   46.9480 C.3    40  SER40       0.2055
     81  C         29.7130   32.8550   46.7920 C.2    40  SER40       0.2643
     82  O         28.9910   31.9250   47.1140 O.2    40  SER40      -0.2714
     83  CB        28.1240   34.5580   45.9460 C.3    40  SER40       0.2130
     84  OG        28.5010   34.0730   44.6760 O.3    40  SER40      -0.2179
     85  N         30.9270   32.6880   46.2990 N.am   41  ASN41      -0.1957
     86  CA        31.4700   31.3820   46.0030 C.3    41  ASN41       0.1819
     87  C         32.9690   31.4660   45.7910 C.2    41  ASN41       0.2621
     88  O         33.5290   32.5500   45.7390 O.2    41  ASN41      -0.2715
     89  CB        30.7470   30.7390   44.7970 C.3    41  ASN41       0.1195
     90  CG        30.7020   31.6500   43.5390 C.2    41  ASN41       0.2630
     91  OD1       31.6050   32.3780   43.2620 O.2    41  ASN41      -0.2716
     92  ND2       29.6570   31.5180   42.7730 N.am   41  ASN41      -0.0877
     93  N         33.6150   30.3140   45.6910 N.am   42  THR42      -0.1951
     94  CA        35.0330   30.2210   45.3170 C.3    42  THR42       0.1897
     95  C         35.1570   29.3840   44.0750 C.2    42  THR42       0.2313
     96  O         34.6370   28.2630   44.0410 O.2    42  THR42      -0.2863
     97  CB        35.8020   29.5830   46.4790 C.3    42  THR42       0.1794
     98  OG1       35.7810   30.4870   47.5860 O.3    42  THR42      -0.2208
     99  CG2       37.2560   29.3560   46.1640 C.3    42  THR42       0.0378
@<TRIPOS>BOND
     1    92    90   am
     2    91    90    2
     3    90    89    1
     4     1     2    1
     5    96    95    2
     6    95    94    1
     7     6     8    1
     8     6     5    1
     9    84    83    1
    10    89    86    1
    11     2     5    1
    12     2     3    1
    13    61    62    1
    14    78    77    1
    15    78    72    1
    16    94    93    1
    17    94    97    1
    18    69    68    1
    19    69    70    1
    20     5     7    1
    21    64    63    2
    22    93    87   am
    23    68    63   am
    24    88    87    2
    25    77    76    1
    26    87    86    1
    27    63    62    1
    28    83    80    1
    29    86    85    1
    30     3     4    2
    31     3     9   am
    32    99    97    1
    33    62    65    1
    34    85    81   am
    35    72    70   am
    36    72    73    1
    37    97    98    1
    38    70    71    2
    39     9    10    1
    40    59    57    1
    41    79    80    1
    42    79    74   am
    43    81    80    1
    44    81    82    2
    45    56    55    2
    46    76    73    1
    47    13    10    1
    48    13    14    1
    49    73    74    1
    50    65    67    1
    51    65    66    1
    52    15    14    1
    53    15    16    1
    54    10    11    1
    55    74    75    2
    56    55    54    1
    57    60    58    1
    58    57    58    1
    59    57    54    1
    60    17    16    1
    61    54    53    1
    62    12    11    2
    63    11    18   am
    64    18    19    1
    65    48    47    2
    66    51    49    1
    67    50    49    1
    68    50    52    1
    69    31    29    1
    70    24    22    1
    71    19    20    1
    72    19    22    1
    73    43    42    2
    74    46    47    1
    75    46    49    1
    76    46    45    1
    77    20    21    2
    78    20    25   am
    79    22    23    1
    80    42    45   am
    81    42    41    1
    82    25    26    1
    83    29    26    1
    84    29    30    1
    85    44    41    1
    86    41    40    1
    87    26    27    1
    88    38    36    1
    89    35    34    2
    90    39    37    1
    91    28    27    2
    92    37    36    1
    93    36    33    1
    94    34    33    1
    95    33    32    1
