@<TRIPOS>MOLECULE
tmp/1vk8A00.pdb
 99 95 0 0 0
SMALL
GASTEIGER

@<TRIPOS>ATOM
      1  N         20.4490   18.1690   40.3740 N.3     7  ILE7       -0.1231
      2  CA        21.3080   18.3500   39.2060 C.3     7  ILE7        0.1692
      3  C         20.5580   19.1610   38.1720 C.2     7  ILE7        0.2592
      4  O         19.4300   18.8300   37.7870 O.2     7  ILE7       -0.2718
      5  CB        21.6680   16.9680   38.6320 C.3     7  ILE7        0.0266
      6  CG1       22.3770   16.1330   39.6980 C.3     7  ILE7        0.0019
      7  CG2       22.5550   17.0650   37.3700 C.3     7  ILE7        0.0020
      8  CD1       22.5540   14.6980   39.2780 C.3     7  ILE7        0.0001
      9  N         21.2040   20.2240   37.7020 N.am    8  LYS8       -0.1966
     10  CA        20.6870   21.0460   36.6180 C.3     8  LYS8        0.1728
     11  C         21.7030   21.1210   35.5050 C.2     8  LYS8        0.2616
     12  O         22.8790   21.3740   35.7480 O.2     8  LYS8       -0.2715
     13  CB        20.3740   22.4460   37.1190 C.3     8  LYS8        0.0311
     14  CG        19.7630   23.3350   36.1030 C.3     8  LYS8        0.0038
     15  CD        19.4490   24.7210   36.6540 C.3     8  LYS8        0.0206
     16  CE        18.5770   25.4840   35.6810 C.3     8  LYS8        0.1093
     17  NZ        17.1200   25.3010   35.9730 N.3     8  LYS8       -0.1314
     18  N         21.2520   20.8410   34.2980 N.am    9  VAL9       -0.1963
     19  CA        22.0560   21.0200   33.0910 C.3     9  VAL9        0.1727
     20  C         21.4730   22.1570   32.2770 C.2     9  VAL9        0.2616
     21  O         20.2810   22.1830   31.9760 O.2     9  VAL9       -0.2715
     22  CB        22.1300   19.7280   32.2290 C.3     9  VAL9        0.0290
     23  CG1       23.0440   19.9290   30.9880 C.3     9  VAL9        0.0023
     24  CG2       22.6060   18.5380   33.0760 C.3     9  VAL9        0.0023
     25  N         22.3220   23.0980   31.8960 N.am   10  VAL10      -0.1977
     26  CA        21.9260   24.2010   31.0330 C.3    10  VAL10       0.1596
     27  C         22.9130   24.2480   29.8630 C.2    10  VAL10       0.2287
     28  O         23.9840   24.8320   29.9880 O.2    10  VAL10      -0.2864
     29  CB        21.9080   25.5560   31.7770 C.3    10  VAL10       0.0276
     30  CG1       21.1890   26.6080   30.9220 C.3    10  VAL10       0.0022
     31  CG2       21.2330   25.4240   33.1340 C.3    10  VAL10       0.0022
     32  N         18.5550   17.9730   27.8540 N.3    22  ILE22      -0.1245
     33  CA        18.0670   17.7210   29.1940 C.3    22  ILE22       0.1561
     34  C         17.4390   16.3450   29.3430 C.2    22  ILE22       0.2260
     35  O         17.6700   15.6870   30.3410 O.2    22  ILE22      -0.2867
     36  CB        17.1110   18.8540   29.6380 C.3    22  ILE22       0.0252
     37  CG1       17.9240   20.1500   29.7650 C.3    22  ILE22       0.0019
     38  CG2       16.4650   18.5230   30.9640 C.3    22  ILE22       0.0019
     39  CD1       17.0920   21.3980   29.9710 C.3    22  ILE22       0.0001
     40  N         20.1870   13.7900   29.6770 N.3    25  ALA25      -0.1231
     41  CA        20.7040   13.8590   31.0340 C.3    25  ALA25       0.1694
     42  C         19.7900   13.1170   32.0110 C.2    25  ALA25       0.2591
     43  O         20.2640   12.3440   32.8400 O.2    25  ALA25      -0.2718
     44  CB        20.8930   15.2890   31.4630 C.3    25  ALA25       0.0304
     45  N         18.4890   13.3640   31.9210 N.am   26  ILE26      -0.1980
     46  CA        17.5320   12.6830   32.7750 C.3    26  ILE26       0.1595
     47  C         17.5600   11.1680   32.5330 C.2    26  ILE26       0.2287
     48  O         17.6570   10.4080   33.4930 O.2    26  ILE26      -0.2864
     49  CB        16.1170   13.2520   32.6140 C.3    26  ILE26       0.0276
     50  CG1       16.0590   14.6630   33.1740 C.3    26  ILE26       0.0022
     51  CG2       15.0920   12.3880   33.3660 C.3    26  ILE26       0.0022
     52  CD1       14.8930   15.4150   32.6580 C.3    26  ILE26       0.0001
     53  N         20.6680    9.8150   34.1810 N.3    29  ILE29      -0.1245
     54  CA        20.4850    9.7860   35.6460 C.3    29  ILE29       0.1561
     55  C         19.6240    8.5990   36.0890 C.2    29  ILE29       0.2260
     56  O         19.9130    7.9390   37.0970 O.2    29  ILE29      -0.2867
     57  CB        19.9090   11.1340   36.1450 C.3    29  ILE29       0.0252
     58  CG1       20.9870   12.2070   36.0820 C.3    29  ILE29       0.0019
     59  CG2       19.4060   11.0470   37.5930 C.3    29  ILE29       0.0019
     60  CD1       20.4300   13.6240   36.0760 C.3    29  ILE29       0.0001
     61  N         12.3290   14.0240   38.9860 N.3    37  VAL37      -0.1231
     62  CA        12.4850   15.1010   38.0300 C.3    37  VAL37       0.1692
     63  C         11.5660   16.2760   38.4340 C.2    37  VAL37       0.2593
     64  O         10.3760   16.1120   38.6300 O.2    37  VAL37      -0.2718
     65  CB        12.1390   14.6920   36.5830 C.3    37  VAL37       0.0266
     66  CG1       12.3810   15.8550   35.6510 C.3    37  VAL37       0.0020
     67  CG2       12.9430   13.4810   36.1080 C.3    37  VAL37       0.0020
     68  N         12.1360   17.4580   38.5640 N.am   38  GLY38      -0.1943
     69  CA        11.3470   18.6640   38.8060 C.3    38  GLY38       0.1998
     70  C         11.4300   19.6250   37.6390 C.2    38  GLY38       0.2481
     71  O         12.1180   19.3340   36.6450 O.2    38  GLY38      -0.2729
     72  N         10.7120   20.7510   37.7140 N.am   39  PRO39      -0.2715
     73  CA        10.7520   21.7590   36.6480 C.3    39  PRO39       0.1536
     74  C         12.1130   22.3630   36.4070 C.2    39  PRO39       0.2599
     75  O         12.3360   22.8040   35.2850 O.2    39  PRO39      -0.2715
     76  CB         9.7990   22.8670   37.1480 C.3    39  PRO39       0.0310
     77  CG         9.0660   22.3020   38.3070 C.3    39  PRO39       0.0237
     78  CD         9.7920   21.1330   38.8070 C.3    39  PRO39       0.0939
     79  N         12.9860   22.4300   37.4160 N.am   40  SER40      -0.1936
     80  CA        14.2510   23.1500   37.2750 C.3    40  SER40       0.2055
     81  C         15.4940   22.2770   37.4420 C.2    40  SER40       0.2643
     82  O         16.6090   22.6800   37.0840 O.2    40  SER40      -0.2714
     83  CB        14.2660   24.3390   38.2360 C.3    40  SER40       0.2130
     84  OG        14.5810   23.9320   39.5570 O.3    40  SER40      -0.2179
     85  N         15.3050   21.0820   37.9730 N.am   41  ASN41      -0.1957
     86  CA        16.4160   20.1840   38.2490 C.3    41  ASN41       0.1819
     87  C         15.8990   18.7810   38.4810 C.2    41  ASN41       0.2621
     88  O         14.6940   18.5880   38.5460 O.2    41  ASN41      -0.2715
     89  CB        17.2590   20.6750   39.4490 C.3    41  ASN41       0.1195
     90  CG        16.4200   20.9960   40.6890 C.2    41  ASN41       0.2630
     91  OD1       15.5240   20.2650   41.0510 O.2    41  ASN41      -0.2716
     92  ND2       16.7610   22.0820   41.3590 N.am   41  ASN41      -0.0877
     93  N         16.8100   17.8150   38.5690 N.am   42  THR42      -0.1951
     94  CA        16.4670   16.4340   38.8950 C.3    42  THR42       0.1897
     95  C         17.2510   16.0880   40.1290 C.2    42  THR42       0.2313
     96  O         18.4680   16.2610   40.1500 O.2    42  THR42      -0.2863
     97  CB        16.8970   15.4930   37.7390 C.3    42  THR42       0.1794
     98  OG1       16.0870   15.7390   36.5950 O.3    42  THR42      -0.2208
     99  CG2       16.6220   14.0630   38.0620 C.3    42  THR42       0.0378
@<TRIPOS>BOND
     1    32    33    1
     2    33    34    1
     3    33    36    1
     4    34    35    2
     5    36    37    1
     6    36    38    1
     7    40    41    1
     8    37    39    1
     9    27    28    2
    10    27    26    1
    11    30    29    1
    12    23    22    1
    13    26    29    1
    14    26    25    1
    15    41    44    1
    16    41    42    1
    17    29    31    1
    18    25    20   am
    19    45    42   am
    20    45    46    1
    21    21    20    2
    22    42    43    2
    23    22    24    1
    24    22    19    1
    25    20    19    1
    26    47    46    1
    27    47    48    2
    28    49    46    1
    29    49    50    1
    30    49    51    1
    31    52    50    1
    32    19    18    1
    33    53    54    1
    34    18    11   am
    35    75    74    2
    36    11    12    2
    37    11    10    1
    38    54    55    1
    39    54    57    1
    40    66    65    1
    41    16    17    1
    42    16    15    1
    43    60    58    1
    44    58    57    1
    45    55    56    2
    46    14    15    1
    47    14    13    1
    48    67    65    1
    49    57    59    1
    50    74    73    1
    51    74    79   am
    52    65    62    1
    53    98    97    1
    54    10    13    1
    55    10     9    1
    56    71    70    2
    57    73    76    1
    58    73    72    1
    59    82    81    2
    60    76    77    1
    61    80    79    1
    62    80    81    1
    63    80    83    1
    64     7     5    1
    65    81    85   am
    66    70    72   am
    67    70    69    1
    68     9     3   am
    69    72    78    1
    70    97    99    1
    71    97    94    1
    72     4     3    2
    73    85    86    1
    74    62    63    1
    75    62    61    1
    76     3     2    1
    77    83    84    1
    78    86    87    1
    79    86    89    1
    80    77    78    1
    81    63    68   am
    82    63    64    2
    83    87    88    2
    84    87    93   am
    85    68    69    1
    86    93    94    1
    87     5     2    1
    88     5     6    1
    89    94    95    1
    90     2     1    1
    91     8     6    1
    92    89    90    1
    93    95    96    2
    94    90    91    2
    95    90    92   am
