@<TRIPOS>MOLECULE
tmp/1vkeD00.pdb
 79 75 0 0 0
SMALL
GASTEIGER

@<TRIPOS>ATOM
      1  N          9.0810   15.8400   11.8410 N.3    14  ASP14      -0.1239
      2  CA         8.0590   15.0380   12.5010 C.3    14  ASP14       0.1674
      3  C          6.6380   15.3740   11.9890 C.2    14  ASP14       0.2266
      4  O          5.8400   14.4590   11.7700 O.2    14  ASP14      -0.2867
      5  CB         8.2170   15.1940   14.0100 C.3    14  ASP14       0.1410
      6  CG         7.3080   14.2590   14.8370 C.2    14  ASP14       0.3668
      7  OD1        7.2350   13.0240   14.6370 O.co2  14  ASP14      -0.2456
      8  OD2        6.6790   14.6880   15.7670 O.co2  14  ASP14      -0.2456
      9  N          3.9140   12.8240    8.3960 N.3    18  TYR18      -0.1241
     10  CA         2.4730   12.4420    8.5230 C.3    18  TYR18       0.1605
     11  C          1.5810   13.1030    7.4450 C.2    18  TYR18       0.2264
     12  O          0.3600   12.8350    7.3920 O.2    18  TYR18      -0.2867
     13  CB         1.9400   12.6970    9.9470 C.3    18  TYR18       0.0534
     14  CG         2.5630   11.8020   10.9870 C.ar   18  TYR18      -0.0201
     15  CD1        2.1920   10.4550   11.1200 C.ar   18  TYR18      -0.0009
     16  CD2        3.5860   12.2750   11.8210 C.ar   18  TYR18      -0.0009
     17  CE1        2.7790    9.6360   12.0980 C.ar   18  TYR18       0.0417
     18  CE2        4.1750   11.4710   12.7750 C.ar   18  TYR18       0.0417
     19  CZ         3.7840   10.1540   12.9160 C.ar   18  TYR18       0.1957
     20  OH         4.3350    9.3300   13.8480 O.3    18  TYR18      -0.2866
     21  N          1.0600    6.3710   13.1120 N.3    32  GLY32      -0.1225
     22  CA         1.5740    7.1220   14.2850 C.3    32  GLY32       0.1811
     23  C          0.9980    6.6150   15.6030 C.2    32  GLY32       0.2280
     24  O          1.6890    6.4780   16.6090 O.2    32  GLY32      -0.2866
     25  N          2.7330    3.2030   16.3840 N.3    35  ALA35      -0.1231
     26  CA         4.1130    3.4010   16.8410 C.3    35  ALA35       0.1694
     27  C          4.1400    3.9820   18.2600 C.2    35  ALA35       0.2592
     28  O          4.9140    3.5410   19.1250 O.2    35  ALA35      -0.2718
     29  CB         4.8980    4.2910   15.8560 C.3    35  ALA35       0.0304
     30  N          3.2530    4.9410   18.5110 N.am   36  SER36      -0.1952
     31  CA         3.1610    5.5980   19.8210 C.3    36  SER36       0.1924
     32  C          2.7250    4.6320   20.9000 C.2    36  SER36       0.2314
     33  O          3.1580    4.7450   22.0480 O.2    36  SER36      -0.2863
     34  CB         2.1650    6.7510   19.7510 C.3    36  SER36       0.2116
     35  OG         2.6480    7.7670   18.9030 O.3    36  SER36      -0.2180
     36  N          5.5800    1.8910   21.6540 N.3    39  LEU39      -0.1245
     37  CA         6.6360    2.6230   22.3580 C.3    39  LEU39       0.1561
     38  C          6.1530    3.2540   23.6630 C.2    39  LEU39       0.2260
     39  O          6.9680    3.8110   24.3890 O.2    39  LEU39      -0.2867
     40  CB         7.2810    3.6650   21.4540 C.3    39  LEU39       0.0270
     41  CG         8.0670    3.1210   20.2580 C.3    39  LEU39       0.0019
     42  CD1        8.4620    4.2460   19.3250 C.3    39  LEU39       0.0001
     43  CD2        9.2570    2.2840   20.6540 C.3    39  LEU39       0.0001
     44  N          1.4730   10.8980   25.6860 N.3    43  ASP43      -0.1225
     45  CA         1.1730   12.1610   24.9940 C.3    43  ASP43       0.1805
     46  C          1.0990   11.9590   23.4840 C.2    43  ASP43       0.2598
     47  O          0.2640   12.5590   22.7720 O.2    43  ASP43      -0.2718
     48  CB         2.2130   13.2130   25.3110 C.3    43  ASP43       0.1424
     49  CG         2.0230   13.8670   26.6600 C.2    43  ASP43       0.3668
     50  OD1        1.0500   13.5740   27.3960 O.co2  43  ASP43      -0.2456
     51  OD2        2.8260   14.7320   27.0560 O.co2  43  ASP43      -0.2456
     52  N          1.9510   11.0620   22.9910 N.am   44  CYS44      -0.1970
     53  CA         1.9970   10.7580   21.5590 C.3    44  CYS44       0.1712
     54  C          0.7220   10.0080   21.1390 C.2    44  CYS44       0.2296
     55  O          0.1310   10.2640   20.0750 O.2    44  CYS44      -0.2864
     56  CB         3.2020    9.8780   21.2310 C.3    44  CYS44       0.0983
     57  SG         4.7860   10.4510   21.8690 S.3    44  CYS44      -0.0798
     58  N         -2.1520   12.5200   21.0530 N.3    47  TYR47      -0.1227
     59  CA        -2.0460   13.3670   19.8410 C.3    47  TYR47       0.1736
     60  C         -2.5670   12.6130   18.5940 C.2    47  TYR47       0.2595
     61  O         -3.4280   13.1080   17.8200 O.2    47  TYR47      -0.2718
     62  CB        -0.5740   13.7890   19.6260 C.3    47  TYR47       0.0548
     63  CG        -0.4050   14.5110   18.3000 C.ar   47  TYR47      -0.0200
     64  CD1       -0.7130   15.8480   18.1760 C.ar   47  TYR47      -0.0009
     65  CD2        0.0240   13.8300   17.1560 C.ar   47  TYR47      -0.0009
     66  CE1       -0.6140   16.4960   16.9170 C.ar   47  TYR47       0.0417
     67  CE2        0.1160   14.4690   15.9270 C.ar   47  TYR47       0.0417
     68  CZ        -0.1900   15.7850   15.8170 C.ar   47  TYR47       0.1957
     69  OH        -0.1110   16.4450   14.6110 O.3    47  TYR47      -0.2866
     70  N         -2.0380   11.4100   18.3670 N.am   48  HIS48      -0.1975
     71  CA        -2.4500   10.6650   17.1690 C.3    48  HIS48       0.1656
     72  C         -3.9090   10.1770   17.2640 C.2    48  HIS48       0.2291
     73  O         -4.5750   10.1430   16.2370 O.2    48  HIS48      -0.2864
     74  CB        -1.4890    9.5390   16.8200 C.3    48  HIS48       0.0771
     75  CG        -0.1710   10.0470   16.3470 C.ar   48  HIS48       0.0820
     76  ND1       -0.0070   10.7180   15.1490 N.ar   48  HIS48      -0.2267
     77  CD2        1.0530   10.0020   16.9270 C.ar   48  HIS48       0.1154
     78  CE1        1.2600   11.0620   15.0170 C.ar   48  HIS48       0.1986
     79  NE2        1.9210   10.6590   16.0950 N.ar   48  HIS48      -0.2212
@<TRIPOS>BOND
     1    12    11    2
     2    11    10    1
     3     9    10    1
     4    10    13    1
     5    13    14    1
     6    14    15   ar
     7    14    16   ar
     8    15    17   ar
     9     4     3    2
    10    16    18   ar
    11     1     2    1
    12     3     2    1
    13    17    19   ar
    14     2     5    1
    15    18    19   ar
    16    19    20    1
    17    21    22    1
    18     5     6    1
    19    22    23    1
    20    69    68    1
    21     7     6   ar
    22     6     8   ar
    23    78    76   ar
    24    78    79   ar
    25    76    75   ar
    26    23    24    2
    27    68    67   ar
    28    68    66   ar
    29    29    26    1
    30    67    65   ar
    31    79    77   ar
    32    73    72    2
    33    75    74    1
    34    75    77   ar
    35    25    26    1
    36    74    71    1
    37    26    27    1
    38    66    64   ar
    39    65    63   ar
    40    71    72    1
    41    71    70    1
    42    61    60    2
    43    64    63   ar
    44    27    30   am
    45    27    28    2
    46    63    62    1
    47    70    60   am
    48    30    31    1
    49    60    59    1
    50    35    34    1
    51    42    41    1
    52    62    59    1
    53    34    31    1
    54    31    32    1
    55    59    58    1
    56    55    54    2
    57    41    43    1
    58    41    40    1
    59    32    33    2
    60    54    53    1
    61    56    53    1
    62    56    57    1
    63    40    37    1
    64    53    52    1
    65    36    37    1
    66    37    38    1
    67    47    46    2
    68    52    46   am
    69    46    45    1
    70    38    39    2
    71    45    48    1
    72    45    44    1
    73    48    49    1
    74    49    51   ar
    75    49    50   ar
