@<TRIPOS>MOLECULE
tmp/1vkfC00.pdb
 104 98 0 0 0
SMALL
GASTEIGER

@<TRIPOS>ATOM
      1  N         84.0080   -7.0080   16.8000 N.3     7  ALA7       -0.1245
      2  CA        85.3140   -6.4850   16.4700 C.3     7  ALA7        0.1562
      3  C         85.8010   -5.5710   17.5990 C.2     7  ALA7        0.2260
      4  O         85.0340   -4.7830   18.1560 O.2     7  ALA7       -0.2867
      5  CB        85.2660   -5.7830   15.1550 C.3     7  ALA7        0.0290
      6  N         88.9940   -2.8820   18.4650 N.3     9  TRP9       -0.1241
      7  CA        90.2160   -2.1300   18.1190 C.3     9  TRP9        0.1605
      8  C         91.2390   -1.9430   19.2350 C.2     9  TRP9        0.2264
      9  O         92.3870   -1.5680   18.9670 O.2     9  TRP9       -0.2867
     10  CB        89.8440   -0.7700   17.5350 C.3     9  TRP9        0.0550
     11  CG        89.4560   -0.8870   16.1520 C.ar    9  TRP9        0.0003
     12  CD1       88.2180   -0.7200   15.6450 C.ar    9  TRP9        0.0946
     13  CD2       90.3100   -1.2300   15.0470 C.ar    9  TRP9        0.0152
     14  NE1       88.2400   -0.9310   14.2880 N.ar    9  TRP9       -0.2442
     15  CE2       89.5140   -1.2420   13.8990 C.ar    9  TRP9        0.0810
     16  CE3       91.6790   -1.5260   14.9190 C.ar    9  TRP9        0.0012
     17  CZ2       90.0250   -1.5280   12.6270 C.ar    9  TRP9        0.0191
     18  CZ3       92.1850   -1.8330   13.6640 C.ar    9  TRP9        0.0001
     19  CH2       91.3590   -1.8250   12.5340 C.ar    9  TRP9        0.0015
     20  N         91.3100   -6.8120   16.5070 N.3    24  LEU24      -0.1245
     21  CA        91.8360   -6.1720   15.3000 C.3    24  LEU24       0.1561
     22  C         93.1500   -5.4580   15.5220 C.2    24  LEU24       0.2260
     23  O         93.7700   -5.0450   14.5720 O.2    24  LEU24      -0.2867
     24  CB        90.8370   -5.1790   14.7640 C.3    24  LEU24       0.0270
     25  CG        89.5200   -5.8030   14.2480 C.3    24  LEU24       0.0019
     26  CD1       88.7000   -4.7080   13.6240 C.3    24  LEU24       0.0001
     27  CD2       89.7300   -6.9410   13.2990 C.3    24  LEU24       0.0001
     28  N         91.1320  -10.8480    4.3730 N.3    93  ARG93      -0.1245
     29  CA        90.4880   -9.5510    4.1480 C.3    93  ARG93       0.1563
     30  C         90.5520   -9.2020    2.6900 C.2    93  ARG93       0.2260
     31  O         91.4800   -9.6030    1.9770 O.2    93  ARG93      -0.2867
     32  CB        91.1260   -8.4350    5.0050 C.3    93  ARG93       0.0307
     33  CG        90.6850   -8.4050    6.4230 C.3    93  ARG93       0.0489
     34  CD        91.4830   -7.4030    7.2920 C.3    93  ARG93       0.2205
     35  NE        90.8600   -6.0830    7.3510 N.pl3  93  ARG93      -0.0865
     36  CZ        91.4920   -4.9210    7.1790 C.cat  93  ARG93       0.5346
     37  NH1       92.8100   -4.8330    6.9340 N.pl3  93  ARG93       0.1354
     38  NH2       90.7840   -3.8100    7.2550 N.pl3  93  ARG93       0.1354
     39  N         86.6910  -11.9390    4.4710 N.3   118  GLU118     -0.1245
     40  CA        86.0410  -10.7600    5.0530 C.3   118  GLU118      0.1567
     41  C         86.0550   -9.6050    4.0460 C.2   118  GLU118      0.2260
     42  O         87.1180   -9.1770    3.6000 O.2   118  GLU118     -0.2867
     43  CB        86.7390  -10.3390    6.3590 C.3   118  GLU118      0.0388
     44  CG        85.9690   -9.2530    7.1010 C.3   118  GLU118      0.1160
     45  CD        86.6780   -8.7830    8.3520 C.2   118  GLU118      0.3649
     46  OE1       87.8570   -8.4470    8.2620 O.co2 118  GLU118     -0.2457
     47  OE2       86.0140   -8.6990    9.4020 O.co2 118  GLU118     -0.2457
     48  N         85.1640   -5.7830    2.8110 N.3   120  LEU120     -0.1245
     49  CA        84.9500   -4.4150    3.2920 C.3   120  LEU120      0.1561
     50  C         84.8020   -3.4490    2.1200 C.2   120  LEU120      0.2260
     51  O         85.4270   -3.6710    1.0410 O.2   120  LEU120     -0.2867
     52  CB        86.1440   -3.9410    4.1210 C.3   120  LEU120      0.0270
     53  CG        86.4880   -4.7590    5.3790 C.3   120  LEU120      0.0019
     54  CD1       87.5300   -5.7350    5.0260 C.3   120  LEU120      0.0001
     55  CD2       86.8920   -3.8220    6.4740 C.3   120  LEU120      0.0001
     56  N         82.2300   -6.4520    6.6940 N.3   140  ALA140     -0.1231
     57  CA        82.7350   -5.5560    7.7330 C.3   140  ALA140      0.1694
     58  C         83.0100   -4.1770    7.1610 C.2   140  ALA140      0.2593
     59  O         83.3510   -4.0330    5.9920 O.2   140  ALA140     -0.2718
     60  CB        83.9890   -6.1370    8.3640 C.3   140  ALA140      0.0304
     61  N         82.7870   -3.1490    7.9600 N.am  141  GLY141     -0.1942
     62  CA        83.1250   -1.7950    7.6000 C.3   141  GLY141      0.2014
     63  C         81.9120   -0.9510    7.3130 C.2   141  GLY141      0.2639
     64  O         81.1420   -1.2440    6.3860 O.2   141  GLY141     -0.2714
     65  N         81.7250    0.0930    8.1400 N.am  142  LEU142     -0.1963
     66  CA        80.6940    1.1050    7.9480 C.3   142  LEU142      0.1728
     67  C         79.2360    0.5730    8.0260 C.2   142  LEU142      0.2616
     68  O         78.3050    1.1610    7.4510 O.2   142  LEU142     -0.2715
     69  CB        80.9240    1.8800    6.6660 C.3   142  LEU142      0.0311
     70  CG        82.2730    2.6010    6.5330 C.3   142  LEU142      0.0022
     71  CD1       82.4970    3.0830    5.1040 C.3   142  LEU142      0.0001
     72  CD2       82.3740    3.7770    7.5240 C.3   142  LEU142      0.0001
     73  N         79.0370   -0.5290    8.7400 N.am  143  VAL143     -0.1977
     74  CA        77.6930   -1.0390    8.9350 C.3   143  VAL143      0.1596
     75  C         77.1860   -0.3090   10.1690 C.2   143  VAL143      0.2287
     76  O         77.6940   -0.5370   11.2540 O.2   143  VAL143     -0.2864
     77  CB        77.6550   -2.5830    9.0820 C.3   143  VAL143      0.0276
     78  CG1       76.2140   -3.0580    9.2050 C.3   143  VAL143      0.0022
     79  CG2       78.3410   -3.2610    7.8660 C.3   143  VAL143      0.0022
     80  N         81.1290   -8.4240   10.9280 N.3   160  SER160     -0.1202
     81  CA        81.9870   -8.0490   12.0390 C.3   160  SER160      0.2020
     82  C         81.8950   -6.5440   12.2500 C.2   160  SER160      0.2619
     83  O         81.9760   -5.7780   11.2990 O.2   160  SER160     -0.2717
     84  CB        83.4200   -8.4660   11.7450 C.3   160  SER160      0.2103
     85  OG        84.3060   -7.9470   12.7070 O.3   160  SER160     -0.2182
     86  N         81.7300   -6.1280   13.4970 N.am  161  THR161     -0.1938
     87  CA        81.4920   -4.7000   13.7810 C.3   161  THR161      0.2028
     88  C         81.8600   -4.4050   15.2130 C.2   161  THR161      0.2643
     89  O         81.7050   -5.2720   16.0780 O.2   161  THR161     -0.2714
     90  CB        79.9910   -4.3680   13.5230 C.3   161  THR161      0.1808
     91  OG1       79.7000   -3.0340   13.9730 O.3   161  THR161     -0.2208
     92  CG2       79.0930   -5.2550   14.4010 C.3   161  THR161      0.0379
     93  N         82.3680   -3.1950   15.4940 N.am  162  SER162     -0.1935
     94  CA        82.6790   -2.7950   16.8780 C.3   162  SER162      0.2055
     95  C         81.5150   -2.0350   17.4910 C.2   162  SER162      0.2643
     96  O         81.5970   -1.6550   18.6700 O.2   162  SER162     -0.2714
     97  CB        83.9620   -1.9430   16.9840 C.3   162  SER162      0.2130
     98  OG        83.8040   -0.6830   16.3570 O.3   162  SER162     -0.2179
     99  N         80.4240   -1.8920   16.7550 N.am  163  SER163     -0.1949
    100  CA        79.2140   -1.2580   17.3280 C.3   163  SER163      0.1924
    101  C         78.5380   -2.0950   18.4170 C.2   163  SER163      0.2314
    102  O         77.9360   -3.1490   18.1370 O.2   163  SER163     -0.2863
    103  CB        78.1640   -0.9440   16.2630 C.3   163  SER163      0.2116
    104  OG        76.9620   -0.5050   16.9210 O.3   163  SER163     -0.2180
@<TRIPOS>BOND
     1    51    50    2
     2    31    30    2
     3    50    49    1
     4    30    29    1
     5    48    49    1
     6    49    52    1
     7    42    41    2
     8    41    40    1
     9    52    53    1
    10    29    28    1
    11    29    32    1
    12    39    40    1
    13    32    33    1
    14    54    53    1
    15    40    43    1
    16    71    70    1
    17    53    55    1
    18    59    58    2
    19    43    44    1
    20    64    63    2
    21    33    34    1
    22    70    69    1
    23    70    72    1
    24    69    66    1
    25    56    57    1
    26    37    36    1
    27    44    45    1
    28    58    57    1
    29    58    61   am
    30    36    38    1
    31    36    35    2
    32    34    35    1
    33    63    62    1
    34    63    65   am
    35    68    67    2
    36    62    61    1
    37    57    60    1
    38    79    77    1
    39    66    67    1
    40    66    65    1
    41    67    73   am
    42    46    45   ar
    43    45    47   ar
    44    73    74    1
    45    74    77    1
    46    74    75    1
    47    77    78    1
    48    75    76    2
    49    80    81    1
    50    83    82    2
    51    84    81    1
    52    84    85    1
    53    81    82    1
    54    82    86   am
    55    19    17   ar
    56    19    18   ar
    57    17    15   ar
    58    27    25    1
    59    86    87    1
    60    90    87    1
    61    90    91    1
    62    90    92    1
    63    26    25    1
    64    18    16   ar
    65    87    88    1
    66    15    14   ar
    67    15    13   ar
    68    25    24    1
    69    14    12   ar
    70    23    22    2
    71    24    21    1
    72    16    13   ar
    73    13    11   ar
    74     5     2    1
    75    88    93   am
    76    88    89    2
    77    21    22    1
    78    21    20    1
    79    93    94    1
    80    12    11   ar
    81    11    10    1
    82   103   104    1
    83   103   100    1
    84    98    97    1
    85     2     1    1
    86     2     3    1
    87    99   100    1
    88    99    95   am
    89    94    97    1
    90    94    95    1
    91   100   101    1
    92    95    96    2
    93    10     7    1
    94     3     4    2
    95     7     6    1
    96     7     8    1
    97   102   101    2
    98     9     8    2
