@<TRIPOS>MOLECULE
tmp/1vkgA00.pdb
 114 113 0 0 0
SMALL
GASTEIGER

@<TRIPOS>ATOM
      1  N         27.3760   68.9790   65.6190 N.3   112  TRP112     -0.1227
      2  CA        25.9910   69.2840   65.1170 C.3   112  TRP112      0.1737
      3  C         25.9020   68.8240   63.6540 C.2   112  TRP112      0.2595
      4  O         26.0760   69.5380   62.6930 O.2   112  TRP112     -0.2718
      5  CB        25.7900   70.8050   65.3500 C.3   112  TRP112      0.0564
      6  CG        26.1380   71.0310   66.8730 C.ar  112  TRP112      0.0003
      7  CD1       27.1350   71.8300   67.3300 C.ar  112  TRP112      0.0946
      8  CD2       25.5480   70.4350   67.9590 C.ar  112  TRP112      0.0152
      9  NE1       27.0940   71.6730   68.6360 N.ar  112  TRP112     -0.2442
     10  CE2       26.1820   70.8580   69.1250 C.ar  112  TRP112      0.0810
     11  CE3       24.4780   69.5220   68.0670 C.ar  112  TRP112      0.0012
     12  CZ2       25.7630   70.3790   70.3720 C.ar  112  TRP112      0.0191
     13  CZ3       24.0570   69.0430   69.3050 C.ar  112  TRP112      0.0001
     14  CH2       24.7040   69.4750   70.4610 C.ar  112  TRP112      0.0015
     15  N         25.6100   67.5530   63.6100 N.am  113  HIS113     -0.1961
     16  CA        25.4540   66.7210   62.3780 C.3   113  HIS113      0.1787
     17  C         24.0820   66.6270   61.7350 C.2   113  HIS113      0.2620
     18  O         23.9360   65.8490   60.8230 O.2   113  HIS113     -0.2715
     19  CB        25.9500   65.2780   62.7460 C.3   113  HIS113      0.0785
     20  CG        25.0290   64.5630   63.8070 C.ar  113  HIS113      0.0821
     21  ND1       25.3850   63.5520   64.5670 N.ar  113  HIS113     -0.2267
     22  CD2       23.6850   64.7950   64.1440 C.ar  113  HIS113      0.1154
     23  CE1       24.3860   63.1710   65.3030 C.ar  113  HIS113      0.1986
     24  NE2       23.3610   63.9170   65.0510 N.ar  113  HIS113     -0.2212
     25  N         23.1240   67.3740   62.1800 N.am  114  HIS114     -0.1973
     26  CA        21.7670   67.3000   61.5700 C.3   114  HIS114      0.1656
     27  C         21.5470   68.4990   60.6290 C.2   114  HIS114      0.2291
     28  O         20.4950   68.6130   60.0410 O.2   114  HIS114     -0.2864
     29  CB        20.6290   67.3580   62.6530 C.3   114  HIS114      0.0771
     30  CG        20.5000   66.0920   63.4680 C.ar  114  HIS114      0.0820
     31  ND1       20.3650   64.9090   62.9800 N.ar  114  HIS114     -0.2267
     32  CD2       20.4870   65.9000   64.8210 C.ar  114  HIS114      0.1154
     33  CE1       20.2770   64.0400   63.9310 C.ar  114  HIS114      0.1986
     34  NE2       20.3480   64.6170   65.1010 N.ar  114  HIS114     -0.2212
     35  N         17.2340   69.2210   63.5110 N.3   122  GLY122     -0.1210
     36  CA        17.6150   68.7620   64.8930 C.3   122  GLY122      0.1956
     37  C         18.5030   69.7660   65.6080 C.2   122  GLY122      0.2611
     38  O         19.6470   69.5000   65.9130 O.2   122  GLY122     -0.2717
     39  N         17.8860   70.8900   65.8440 N.am  123  PHE123     -0.1976
     40  CA        18.4890   72.0870   66.5310 C.3   123  PHE123      0.1639
     41  C         19.9460   72.3720   66.1470 C.2   123  PHE123      0.2290
     42  O         20.6950   72.9210   66.9410 O.2   123  PHE123     -0.2864
     43  CB        18.3600   71.8820   68.0830 C.3   123  PHE123      0.0560
     44  CG        16.9480   71.3390   68.3850 C.ar  123  PHE123     -0.0200
     45  CD1       16.7350   69.9720   68.5370 C.ar  123  PHE123     -0.0042
     46  CD2       15.8720   72.1930   68.4660 C.ar  123  PHE123     -0.0042
     47  CE1       15.4690   69.4720   68.7590 C.ar  123  PHE123     -0.0003
     48  CE2       14.6000   71.6770   68.6910 C.ar  123  PHE123     -0.0003
     49  CZ        14.3950   70.3210   68.8370 C.ar  123  PHE123     -0.0000
     50  N         27.0450   58.9700   68.0010 N.3   149  ASP149     -0.1239
     51  CA        25.8850   59.6030   68.7570 C.3   149  ASP149      0.1674
     52  C         24.7260   58.6310   68.5220 C.2   149  ASP149      0.2266
     53  O         24.7370   57.8940   67.5620 O.2   149  ASP149     -0.2867
     54  CB        25.5460   61.0300   68.1730 C.3   149  ASP149      0.1410
     55  CG        24.3010   61.7690   68.7380 C.2   149  ASP149      0.3668
     56  OD1       24.4830   62.8700   69.2250 O.co2 149  ASP149     -0.2456
     57  OD2       23.2190   61.2340   68.6680 O.co2 149  ASP149     -0.2456
     58  N         21.8340   59.0950   67.4690 N.3   151  HIS151     -0.1241
     59  CA        21.0380   59.4350   66.2350 C.3   151  HIS151      0.1621
     60  C         21.8560   59.3360   64.9140 C.2   151  HIS151      0.2264
     61  O         23.0810   59.3280   64.9040 O.2   151  HIS151     -0.2867
     62  CB        20.4980   60.8800   66.3270 C.3   151  HIS151      0.0745
     63  CG        19.6690   61.1310   67.5910 C.ar  151  HIS151      0.0817
     64  ND1       20.2120   61.4400   68.7620 N.ar  151  HIS151     -0.2268
     65  CD2       18.2960   61.0860   67.6950 C.ar  151  HIS151      0.1154
     66  CE1       19.1920   61.5760   69.5590 C.ar  151  HIS151      0.1986
     67  NE2       18.0780   61.3720   68.9430 N.ar  151  HIS151     -0.2212
     68  N         13.7450   59.7210   65.5460 N.3   179  PHE179     -0.1241
     69  CA        14.4320   60.7830   64.7330 C.3   179  PHE179      0.1605
     70  C         15.7920   60.2730   64.1600 C.2   179  PHE179      0.2264
     71  O         16.3540   59.2830   64.5820 O.2   179  PHE179     -0.2867
     72  CB        14.6430   62.0870   65.6750 C.3   179  PHE179      0.0534
     73  CG        15.0120   63.3890   64.9050 C.ar  179  PHE179     -0.0203
     74  CD1       14.0300   64.1790   64.3630 C.ar  179  PHE179     -0.0042
     75  CD2       16.3220   63.7880   64.7340 C.ar  179  PHE179     -0.0042
     76  CE1       14.3470   65.3270   63.6760 C.ar  179  PHE179     -0.0003
     77  CE2       16.6330   64.9400   64.0420 C.ar  179  PHE179     -0.0003
     78  CZ        15.6400   65.7130   63.5120 C.ar  179  PHE179     -0.0000
     79  N         24.5400   60.2530   73.9610 N.3   238  ASP238     -0.1239
     80  CA        23.0840   59.9750   74.1810 C.3   238  ASP238      0.1674
     81  C         22.8800   58.4460   74.1660 C.2   238  ASP238      0.2266
     82  O         21.7720   57.9430   74.1910 O.2   238  ASP238     -0.2867
     83  CB        22.1760   60.6280   73.0530 C.3   238  ASP238      0.1410
     84  CG        22.9240   61.2770   71.8510 C.2   238  ASP238      0.3668
     85  OD1       23.9900   60.8110   71.4750 O.co2 238  ASP238     -0.2456
     86  OD2       22.3520   62.2350   71.3480 O.co2 238  ASP238     -0.2456
     87  N         17.2130   60.4140   76.8400 N.3   245  MET245     -0.1245
     88  CA        17.0110   59.5530   75.6430 C.3   245  MET245      0.1570
     89  C         16.6100   58.1270   76.0200 C.2   245  MET245      0.2261
     90  O         15.7920   57.5220   75.3560 O.2   245  MET245     -0.2867
     91  CB        18.3310   59.4900   74.7800 C.3   245  MET245      0.0387
     92  CG        18.5810   60.7770   73.9470 C.3   245  MET245      0.0595
     93  SD        17.1950   61.2980   72.8980 S.3   245  MET245     -0.1393
     94  CE        16.7920   62.8940   73.6660 C.3   245  MET245      0.0692
     95  N         28.4020   66.3250   70.4900 N.3   274  GLY274     -0.1210
     96  CA        27.0290   66.1370   69.9320 C.3   274  GLY274      0.1956
     97  C         26.0730   65.9910   71.1350 C.2   274  GLY274      0.2612
     98  O         26.2910   66.6200   72.1500 O.2   274  GLY274     -0.2717
     99  N         25.0400   65.1940   71.0390 N.am  275  GLY275     -0.1956
    100  CA        24.0790   65.0290   72.1960 C.3   275  GLY275      0.1869
    101  C         24.7420   64.6390   73.5180 C.2   275  GLY275      0.2309
    102  O         25.9280   64.3970   73.5600 O.2   275  GLY275     -0.2863
    103  N         22.4360   64.6190   76.9850 N.3   277  TYR277     -0.1241
    104  CA        21.4110   65.3350   77.8230 C.3   277  TYR277      0.1605
    105  C         21.3070   64.9390   79.2790 C.2   277  TYR277      0.2264
    106  O         20.2330   64.9700   79.8290 O.2   277  TYR277     -0.2867
    107  CB        20.0070   65.1450   77.1010 C.3   277  TYR277      0.0534
    108  CG        20.2210   65.3670   75.5800 C.ar  277  TYR277     -0.0201
    109  CD1       19.7340   64.4460   74.6770 C.ar  277  TYR277     -0.0009
    110  CD2       20.9360   66.4690   75.1120 C.ar  277  TYR277     -0.0009
    111  CE1       19.9640   64.6230   73.3390 C.ar  277  TYR277      0.0417
    112  CE2       21.1640   66.6420   73.7790 C.ar  277  TYR277      0.0417
    113  CZ        20.6780   65.7180   72.8990 C.ar  277  TYR277      0.1957
    114  OH        20.9250   65.9010   71.5680 O.3   277  TYR277     -0.2866
@<TRIPOS>BOND
     1    28    27    2
     2    27    26    1
     3    18    17    2
     4    26    25    1
     5    26    29    1
     6    17    25   am
     7    17    16    1
     8    16    19    1
     9    16    15    1
    10    29    30    1
    11     4     3    2
    12    19    20    1
    13    31    30   ar
    14    31    33   ar
    15    30    32   ar
    16    35    36    1
    17    78    76   ar
    18    78    77   ar
    19    15     3   am
    20     3     2    1
    21    76    74   ar
    22    20    22   ar
    23    20    21   ar
    24    33    34   ar
    25    77    75   ar
    26    22    24   ar
    27    70    71    2
    28    70    69    1
    29    74    73   ar
    30    21    23   ar
    31    69    68    1
    32    69    72    1
    33    75    73   ar
    34    32    34   ar
    35    36    37    1
    36    61    60    2
    37    73    72    1
    38    60    59    1
    39    24    23   ar
    40     2     5    1
    41     2     1    1
    42     5     6    1
    43    37    39   am
    44    37    38    2
    45    39    40    1
    46    41    40    1
    47    41    42    2
    48    59    62    1
    49    59    58    1
    50    62    63    1
    51    40    43    1
    52     6     7   ar
    53     6     8   ar
    54     7     9   ar
    55    53    52    2
    56    63    65   ar
    57    63    64   ar
    58    65    67   ar
    59     8    11   ar
    60     8    10   ar
    61    50    51    1
    62    11    13   ar
    63    43    44    1
    64    54    55    1
    65    54    51    1
    66    44    46   ar
    67    44    45   ar
    68    46    48   ar
    69    52    51    1
    70    45    47   ar
    71     9    10   ar
    72    57    55   ar
    73    48    49   ar
    74    55    56   ar
    75    47    49   ar
    76    64    66   ar
    77    67    66   ar
    78    10    12   ar
    79    13    14   ar
    80    96    95    1
    81    96    97    1
    82    12    14   ar
    83    99    97   am
    84    99   100    1
    85    97    98    2
    86    86    84   ar
    87    85    84   ar
    88   114   113    1
    89    84    83    1
    90   100   101    1
    91    93    94    1
    92    93    92    1
    93   113   111   ar
    94   113   112   ar
    95    83    80    1
    96   111   109   ar
    97   101   102    2
    98   112   110   ar
    99    92    91    1
   100    79    80    1
   101    81    80    1
   102    81    82    2
   103   109   108   ar
   104    91    88    1
   105   110   108   ar
   106    90    89    2
   107   108   107    1
   108    88    89    1
   109    88    87    1
   110   103   104    1
   111   107   104    1
   112   104   105    1
   113   105   106    2
