@<TRIPOS>MOLECULE
tmp/1vkmE00.pdb
 106 97 0 0 0
SMALL
GASTEIGER

@<TRIPOS>ATOM
      1  N        -17.8160  -22.2390   40.1820 N.3    26  THR26      -0.1218
      2  CA       -18.5600  -22.0860   41.4230 C.3    26  THR26       0.1862
      3  C        -19.9000  -22.8120   41.4140 C.2    26  THR26       0.2287
      4  O        -20.3500  -23.2880   42.4500 O.2    26  THR26      -0.2866
      5  CB       -18.7140  -20.6150   41.8460 C.3    26  THR26       0.1770
      6  OG1      -19.0560  -20.5630   43.2530 O.3    26  THR26      -0.2211
      7  CG2      -19.8530  -19.9490   41.0950 C.3    26  THR26       0.0375
      8  N        -14.8600  -18.6630   46.6280 N.3    81  LYS81      -0.1245
      9  CA       -15.6680  -18.1710   45.5060 C.3    81  LYS81       0.1561
     10  C        -15.0390  -16.8550   45.0250 C.2    81  LYS81       0.2260
     11  O        -14.8690  -15.9260   45.8290 O.2    81  LYS81      -0.2867
     12  CB       -17.1060  -17.9180   45.9650 C.3    81  LYS81       0.0271
     13  CG       -18.0480  -17.3580   44.8820 C.3    81  LYS81       0.0035
     14  CD       -19.4830  -17.0430   45.4320 C.3    81  LYS81       0.0206
     15  CE       -20.0330  -15.6620   44.8930 C.3    81  LYS81       0.1093
     16  NZ       -21.4760  -15.3710   45.2700 N.3    81  LYS81      -0.1314
     17  N        -14.7660  -13.7230   42.0870 N.3    83  GLY83      -0.1225
     18  CA       -14.9950  -12.9310   40.9170 C.3    83  GLY83       0.1811
     19  C        -13.6650  -12.3890   40.4420 C.2    83  GLY83       0.2280
     20  O        -12.5950  -12.7870   40.9120 O.2    83  GLY83      -0.2866
     21  N        -16.6780  -17.3730   39.4540 N.3   100  THR100     -0.1203
     22  CA       -18.0170  -16.9380   39.0740 C.3   100  THR100      0.1994
     23  C        -18.0310  -16.5810   37.6040 C.2   100  THR100      0.2618
     24  O        -17.0360  -16.7370   36.9180 O.2   100  THR100     -0.2717
     25  CB       -18.4480  -15.7000   39.8880 C.3   100  THR100      0.1784
     26  OG1      -17.5410  -14.6030   39.6270 O.3   100  THR100     -0.2211
     27  CG2      -18.3830  -15.9890   41.4090 C.3   100  THR100      0.0376
     28  N        -19.1690  -16.1050   37.1130 N.am  101  VAL101     -0.1965
     29  CA       -19.2500  -15.6250   35.7280 C.3   101  VAL101      0.1727
     30  C        -18.1940  -14.5420   35.4010 C.2   101  VAL101      0.2616
     31  O        -17.5190  -14.6000   34.3500 O.2   101  VAL101     -0.2715
     32  CB       -20.6840  -15.1470   35.3900 C.3   101  VAL101      0.0290
     33  CG1      -20.6750  -14.3510   34.1300 C.3   101  VAL101      0.0023
     34  CG2      -21.6480  -16.3770   35.2340 C.3   101  VAL101      0.0023
     35  N        -18.0500  -13.5540   36.2810 N.am  102  SER102     -0.1950
     36  CA       -17.1620  -12.4310   35.9850 C.3   102  SER102      0.1924
     37  C        -15.7320  -12.9650   35.7610 C.2   102  SER102      0.2314
     38  O        -15.1110  -12.7060   34.7270 O.2   102  SER102     -0.2863
     39  CB       -17.1820  -11.3540   37.0830 C.3   102  SER102      0.2116
     40  OG       -16.7820  -11.8280   38.3760 O.3   102  SER102     -0.2180
     41  N        -25.2820  -13.0700   37.9760 N.3   122  GLY122     -0.1225
     42  CA       -25.5410  -12.1460   39.0690 C.3   122  GLY122      0.1811
     43  C        -26.1360  -10.8690   38.4970 C.2   122  GLY122      0.2280
     44  O        -26.2840  -10.7100   37.2900 O.2   122  GLY122     -0.2866
     45  N        -28.8840   -6.5980   43.4930 N.3   125  HIS125     -0.1241
     46  CA       -29.6670   -7.2480   44.5680 C.3   125  HIS125      0.1621
     47  C        -30.7070   -6.2870   45.0950 C.2   125  HIS125      0.2264
     48  O        -30.5850   -5.0680   44.9040 O.2   125  HIS125     -0.2867
     49  CB       -28.7480   -7.6450   45.7020 C.3   125  HIS125      0.0745
     50  CG       -27.7660   -8.7020   45.3220 C.ar  125  HIS125      0.0817
     51  ND1      -27.9230  -10.0200   45.6920 N.ar  125  HIS125     -0.2268
     52  CD2      -26.6520   -8.6530   44.5540 C.ar  125  HIS125      0.1154
     53  CE1      -26.9290  -10.7330   45.1950 C.ar  125  HIS125      0.1986
     54  NE2      -26.1380   -9.9260   44.5070 N.ar  125  HIS125     -0.2212
     55  N        -23.4030   -7.3400   41.4320 N.3   132  SER132     -0.1202
     56  CA       -22.4220   -8.3230   41.0270 C.3   132  SER132      0.2020
     57  C        -21.3240   -7.7550   40.1060 C.2   132  SER132      0.2619
     58  O        -21.6100   -7.0570   39.1990 O.2   132  SER132     -0.2717
     59  CB       -23.0950   -9.4740   40.2880 C.3   132  SER132      0.2103
     60  OG       -22.1800  -10.5340   40.0630 O.3   132  SER132     -0.2182
     61  N        -20.0720   -8.1570   40.3450 N.am  133  GLN133     -0.1965
     62  CA       -19.0160   -8.0200   39.3390 C.3   133  GLN133      0.1733
     63  C        -19.3780   -8.5670   37.9320 C.2   133  GLN133      0.2616
     64  O        -18.8470   -8.0840   36.9540 O.2   133  GLN133     -0.2715
     65  CB       -17.7540   -8.7210   39.8340 C.3   133  GLN133      0.0408
     66  CG       -17.1550   -8.0860   41.0510 C.3   133  GLN133      0.0908
     67  CD       -15.9240   -8.8030   41.4720 C.2   133  GLN133      0.2608
     68  OE1      -14.8390   -8.5570   40.9110 O.2   133  GLN133     -0.2717
     69  NE2      -16.0510   -9.6920   42.4590 N.am  133  GLN133     -0.0878
     70  N        -20.2890   -9.5440   37.8400 N.am  134  ASP134     -0.1971
     71  CA       -20.7870  -10.0150   36.5560 C.3   134  ASP134      0.1709
     72  C        -21.2100   -8.9020   35.6310 C.2   134  ASP134      0.2293
     73  O        -20.9270   -8.9550   34.4670 O.2   134  ASP134     -0.2864
     74  CB       -21.9830  -10.9570   36.7390 C.3   134  ASP134      0.1436
     75  CG       -21.6270  -12.2560   37.4260 C.2   134  ASP134      0.3671
     76  OD1      -20.4540  -12.4870   37.8830 O.co2 134  ASP134     -0.2456
     77  OD2      -22.5190  -13.1240   37.5740 O.co2 134  ASP134     -0.2456
     78  N        -30.3260  -14.5040   37.8890 N.3   150  LYS150     -0.1245
     79  CA       -30.8590  -15.2230   38.9960 C.3   150  LYS150      0.1561
     80  C        -32.1180  -14.5830   39.5580 C.2   150  LYS150      0.2260
     81  O        -32.2390  -13.3560   39.6630 O.2   150  LYS150     -0.2867
     82  CB       -29.7940  -15.4080   40.0840 C.3   150  LYS150      0.0271
     83  CG       -28.5480  -16.0820   39.5500 C.3   150  LYS150      0.0035
     84  CD       -27.8850  -16.9320   40.5570 C.3   150  LYS150      0.0206
     85  CE       -26.7870  -17.7850   39.9360 C.3   150  LYS150      0.1093
     86  NZ       -25.4540  -17.1110   39.9400 N.3   150  LYS150     -0.1314
     87  N        -22.2660   -9.8440   51.3600 N.3   240  GLY240     -0.1210
     88  CA       -21.1860  -10.1610   50.4660 C.3   240  GLY240      0.1956
     89  C        -21.4980  -11.3900   49.6350 C.2   240  GLY240      0.2611
     90  O        -22.6480  -11.6270   49.1980 O.2   240  GLY240     -0.2717
     91  N        -20.4660  -12.1830   49.4050 N.am  241  LYS241     -0.1979
     92  CA       -20.5440  -13.2680   48.4230 C.3   241  LYS241      0.1596
     93  C        -21.4570  -14.4050   48.8800 C.2   241  LYS241      0.2287
     94  O        -21.8830  -15.2250   48.0590 O.2   241  LYS241     -0.2864
     95  CB       -19.1400  -13.8100   48.1290 C.3   241  LYS241      0.0298
     96  CG       -18.2570  -12.8390   47.3530 C.3   241  LYS241      0.0038
     97  CD       -17.0270  -13.5490   46.7760 C.3   241  LYS241      0.0206
     98  CE       -15.9820  -12.5510   46.2870 C.3   241  LYS241      0.1093
     99  NZ       -16.5960  -11.4580   45.4940 N.3   241  LYS241     -0.1314
    100  N        -26.0110  -14.9990   47.5230 N.3   244  THR244     -0.1218
    101  CA       -26.5860  -15.8200   46.4700 C.3   244  THR244      0.1862
    102  C        -26.7070  -17.3010   46.8640 C.2   244  THR244      0.2287
    103  O        -27.7690  -17.8720   46.6890 O.2   244  THR244     -0.2866
    104  CB       -25.7930  -15.6430   45.1780 C.3   244  THR244      0.1770
    105  OG1      -25.8700  -14.2670   44.7270 O.3   244  THR244     -0.2211
    106  CG2      -26.4050  -16.4990   44.0450 C.3   244  THR244      0.0375
@<TRIPOS>BOND
     1    33    32    1
     2    31    30    2
     3    73    72    2
     4    38    37    2
     5    34    32    1
     6    32    29    1
     7    30    29    1
     8    30    35   am
     9    72    71    1
    10    29    28    1
    11    37    36    1
    12    36    35    1
    13    36    39    1
    14    71    74    1
    15    71    70    1
    16    74    75    1
    17    24    23    2
    18    64    63    2
    19    39    40    1
    20    28    23   am
    21    44    43    2
    22    75    77   ar
    23    75    76   ar
    24    23    22    1
    25    70    63   am
    26    78    79    1
    27    63    62    1
    28    41    42    1
    29    43    42    1
    30    79    80    1
    31    79    82    1
    32    22    21    1
    33    22    25    1
    34    58    57    2
    35    62    65    1
    36    62    61    1
    37    83    82    1
    38    83    84    1
    39    80    81    2
    40    26    25    1
    41    65    66    1
    42    25    27    1
    43    85    86    1
    44    85    84    1
    45    60    59    1
    46    57    61   am
    47    57    56    1
    48     1     2    1
    49    59    56    1
    50    19    20    2
    51    19    18    1
    52    68    67    2
    53    18    17    1
    54    56    55    1
    55    66    67    1
    56     7     5    1
    57     3     2    1
    58     3     4    2
    59     2     5    1
    60    67    69   am
    61     5     6    1
    62    45    46    1
    63   106   104    1
    64    54    52   ar
    65    54    53   ar
    66    52    50   ar
    67    46    47    1
    68    46    49    1
    69   105   104    1
    70    13    14    1
    71    13    12    1
    72    15    16    1
    73    15    14    1
    74    48    47    2
    75    10     9    1
    76    10    11    2
    77   104   101    1
    78    53    51   ar
    79    50    51   ar
    80    50    49    1
    81    99    98    1
    82     9    12    1
    83     9     8    1
    84    98    97    1
    85   101   102    1
    86   101   100    1
    87   103   102    2
    88    97    96    1
    89    96    95    1
    90    94    93    2
    91    95    92    1
    92    92    93    1
    93    92    91    1
    94    90    89    2
    95    91    89   am
    96    89    88    1
    97    88    87    1
