@<TRIPOS>MOLECULE
tmp/1vkoA01.pdb
 111 101 0 0 0
SMALL
GASTEIGER

@<TRIPOS>ATOM
      1  N          9.5970   47.0660   52.7030 N.3   304  LYS304     -0.1231
      2  CA         8.5780   47.5110   53.6030 C.3   304  LYS304      0.1693
      3  C          9.2400   48.0150   54.8580 C.2   304  LYS304      0.2593
      4  O          9.4270   47.2680   55.8350 O.2   304  LYS304     -0.2718
      5  CB         7.6410   46.3690   53.8870 C.3   304  LYS304      0.0285
      6  CG         6.4940   46.7800   54.6750 C.3   304  LYS304      0.0035
      7  CD         6.0920   45.6110   55.5300 C.3   304  LYS304      0.0206
      8  CE         5.1430   44.7130   54.8160 C.3   304  LYS304      0.1093
      9  NZ         4.6120   43.6860   55.7460 N.3   304  LYS304     -0.1314
     10  N          9.6140   49.2880   54.8220 N.am  305  SER305     -0.1938
     11  CA        10.5160   49.8340   55.8280 C.3   305  SER305      0.2055
     12  C          9.8300   50.6460   56.9640 C.2   305  SER305      0.2644
     13  O         10.2210   50.5160   58.1450 O.2   305  SER305     -0.2714
     14  CB        11.6230   50.6560   55.1450 C.3   305  SER305      0.2130
     15  OG        11.0940   51.7040   54.3300 O.3   305  SER305     -0.2179
     16  N          8.8290   51.4690   56.6140 N.am  306  GLY306     -0.1939
     17  CA         8.3470   52.4900   57.5320 C.3   306  GLY306      0.2014
     18  C          6.8440   52.5970   57.6690 C.2   306  GLY306      0.2639
     19  O          6.2340   51.8730   58.4570 O.2   306  GLY306     -0.2714
     20  N          6.2470   53.5120   56.9070 N.am  307  GLN307     -0.1963
     21  CA         4.8170   53.8250   57.0210 C.3   307  GLN307      0.1733
     22  C          3.8980   52.6220   56.6780 C.2   307  GLN307      0.2617
     23  O          2.8460   52.4330   57.2970 O.2   307  GLN307     -0.2715
     24  CB         4.5090   55.0470   56.1450 C.3   307  GLN307      0.0408
     25  CG         3.0430   55.3870   55.9970 C.3   307  GLN307      0.0908
     26  CD         2.8290   56.4150   54.9080 C.2   307  GLN307      0.2608
     27  OE1        2.9390   56.0800   53.7130 O.2   307  GLN307     -0.2717
     28  NE2        2.5200   57.6720   55.2990 N.am  307  GLN307     -0.0878
     29  N          4.3270   51.8160   55.7070 N.am  308  THR308     -0.1951
     30  CA         3.6250   50.6100   55.2660 C.3   308  THR308      0.1897
     31  C          3.8140   49.4040   56.2110 C.2   308  THR308      0.2313
     32  O          2.8990   48.5750   56.3320 O.2   308  THR308     -0.2863
     33  CB         4.0290   50.2580   53.8000 C.3   308  THR308      0.1794
     34  OG1        3.6650   51.3470   52.9270 O.3   308  THR308     -0.2208
     35  CG2        3.2230   49.0640   53.2590 C.3   308  THR308      0.0378
     36  N          3.5920   61.5060   52.7410 N.3   332  ASN332     -0.1240
     37  CA         5.0290   61.2440   52.9050 C.3   332  ASN332      0.1653
     38  C          5.8100   62.3610   52.2470 C.2   332  ASN332      0.2266
     39  O          5.4440   62.7980   51.1360 O.2   332  ASN332     -0.2867
     40  CB         5.4450   59.9190   52.2460 C.3   332  ASN332      0.1155
     41  CG         4.6850   58.7220   52.7950 C.2   332  ASN332      0.2627
     42  OD1        5.1350   58.0830   53.7430 O.2   332  ASN332     -0.2716
     43  ND2        3.5150   58.4210   52.2040 N.am  332  ASN332     -0.0877
     44  N         10.1930   63.5190   51.7550 N.3   334  LEU334     -0.1245
     45  CA        11.6410   63.2280   51.9320 C.3   334  LEU334      0.1561
     46  C         12.4730   64.0160   50.9200 C.2   334  LEU334      0.2260
     47  O         11.9520   64.5490   49.9220 O.2   334  LEU334     -0.2867
     48  CB        11.9120   61.7190   51.8480 C.3   334  LEU334      0.0270
     49  CG        11.7700   60.9360   50.5370 C.3   334  LEU334      0.0019
     50  CD1       12.0640   59.4780   50.7990 C.3   334  LEU334      0.0001
     51  CD2       10.3860   61.0930   49.8900 C.3   334  LEU334      0.0001
     52  N         16.0460   59.2220   46.4720 N.3   338  ASP338     -0.1239
     53  CA        14.8360   58.4070   46.3280 C.3   338  ASP338      0.1674
     54  C         13.6280   59.3410   46.0490 C.2   338  ASP338      0.2266
     55  O         12.9010   59.1300   45.0690 O.2   338  ASP338     -0.2867
     56  CB        14.6450   57.4770   47.5630 C.3   338  ASP338      0.1410
     57  CG        13.4100   56.5540   47.4550 C.2   338  ASP338      0.3668
     58  OD1       12.9730   56.2320   46.3080 O.co2 338  ASP338     -0.2456
     59  OD2       12.8000   56.1100   48.4730 O.co2 338  ASP338     -0.2456
     60  N          5.4750   53.1230   42.9600 N.3   351  LYS351     -0.1245
     61  CA         5.3900   53.1780   44.4350 C.3   351  LYS351      0.1561
     62  C          3.9720   53.3200   45.0390 C.2   351  LYS351      0.2260
     63  O          3.6300   52.5960   45.9900 O.2   351  LYS351     -0.2867
     64  CB         6.3040   54.2940   44.9610 C.3   351  LYS351      0.0271
     65  CG         6.4030   54.3290   46.4680 C.3   351  LYS351      0.0035
     66  CD         7.3580   53.2580   47.0260 C.3   351  LYS351      0.0206
     67  CE         8.8180   53.5630   46.6820 C.3   351  LYS351      0.1093
     68  NZ         9.6210   52.3710   47.0620 N.3   351  LYS351     -0.1314
     69  N          2.3240   50.7370   47.8980 N.3   355  LYS355     -0.1245
     70  CA         1.8740   51.3200   49.1780 C.3   355  LYS355      0.1561
     71  C          0.3350   51.1490   49.4310 C.2   355  LYS355      0.2260
     72  O         -0.1030   50.8720   50.5660 O.2   355  LYS355     -0.2867
     73  CB         2.3090   52.8020   49.2810 C.3   355  LYS355      0.0271
     74  CG         3.8460   53.0380   49.4560 C.3   355  LYS355      0.0035
     75  CD         4.1880   54.5360   49.4670 C.3   355  LYS355      0.0206
     76  CE         3.9430   55.2020   50.8380 C.3   355  LYS355      0.1093
     77  NZ         5.1900   55.3480   51.6830 N.3   355  LYS355     -0.1314
     78  N          3.3440   60.9560   48.0280 N.3   382  ILE382     -0.1245
     79  CA         4.7960   61.1580   48.2600 C.3   382  ILE382      0.1561
     80  C          5.2650   62.4450   47.6260 C.2   382  ILE382      0.2260
     81  O          5.0320   62.7010   46.4220 O.2   382  ILE382     -0.2867
     82  CB         5.6740   60.0130   47.7420 C.3   382  ILE382      0.0252
     83  CG1        5.2140   58.6540   48.2970 C.3   382  ILE382      0.0019
     84  CG2        7.1630   60.3000   48.0610 C.3   382  ILE382      0.0019
     85  CD1        5.7120   57.4570   47.4720 C.3   382  ILE382      0.0001
     86  N         12.6950   60.7850   56.1130 N.3   392  LYS392     -0.1245
     87  CA        11.3040   60.8870   55.5800 C.3   392  LYS392      0.1561
     88  C         10.2900   61.1080   56.7030 C.2   392  LYS392      0.2260
     89  O         10.5100   60.7010   57.8540 O.2   392  LYS392     -0.2867
     90  CB        10.9040   59.7520   54.5920 C.3   392  LYS392      0.0271
     91  CG        10.0950   58.5970   55.1380 C.3   392  LYS392      0.0035
     92  CD         8.5870   58.7650   54.9520 C.3   392  LYS392      0.0206
     93  CE         7.8690   57.4140   55.1350 C.3   392  LYS392      0.1093
     94  NZ         7.8440   56.5820   53.8950 N.3   392  LYS392     -0.1314
     95  N         14.9540   56.6690   56.4790 N.3   418  ASP418     -0.1239
     96  CA        14.7240   55.6050   55.4870 C.3   418  ASP418      0.1674
     97  C         15.8840   54.6140   55.3390 C.2   418  ASP418      0.2266
     98  O         15.6700   53.4020   55.3550 O.2   418  ASP418     -0.2867
     99  CB        14.3970   56.1960   54.1240 C.3   418  ASP418      0.1410
    100  CG        12.9560   56.6460   54.0160 C.2   418  ASP418      0.3668
    101  OD1       12.0720   56.1220   54.7620 O.co2 418  ASP418     -0.2456
    102  OD2       12.6280   57.5410   53.2110 O.co2 418  ASP418     -0.2456
    103  N          6.6020   45.1750   50.5160 N.3   462  LYS462     -0.1245
    104  CA         5.3420   45.9040   50.4910 C.3   462  LYS462      0.1561
    105  C          4.3360   45.2460   49.6120 C.2   462  LYS462      0.2260
    106  O          3.1450   45.2140   49.9490 O.2   462  LYS462     -0.2867
    107  CB         5.5160   47.2830   49.9050 C.3   462  LYS462      0.0271
    108  CG         5.8260   48.3360   50.8930 C.3   462  LYS462      0.0035
    109  CD         5.5190   49.6970   50.2710 C.3   462  LYS462      0.0206
    110  CE         6.3740   50.7390   50.9510 C.3   462  LYS462      0.1093
    111  NZ         7.8190   50.6410   50.5520 N.3   462  LYS462     -0.1314
@<TRIPOS>BOND
     1    60    61    1
     2    61    64    1
     3    61    62    1
     4    64    65    1
     5    62    63    2
     6    55    54    2
     7    54    53    1
     8    58    57   ar
     9    53    52    1
    10    53    56    1
    11    81    80    2
    12    65    66    1
    13    67    66    1
    14    67    68    1
    15    57    56    1
    16    57    59   ar
    17    85    83    1
    18    80    79    1
    19    82    84    1
    20    82    79    1
    21    82    83    1
    22    69    70    1
    23    78    79    1
    24    70    73    1
    25    70    71    1
    26    73    74    1
    27    71    72    2
    28    74    75    1
    29    75    76    1
    30   105   106    2
    31   105   104    1
    32    51    49    1
    33   107   104    1
    34   107   108    1
    35    47    46    2
    36   109   108    1
    37   109   110    1
    38   104   103    1
    39    49    50    1
    40    49    48    1
    41   111   110    1
    42    76    77    1
    43    46    45    1
    44    39    38    2
    45    44    45    1
    46    48    45    1
    47    43    41   am
    48    40    41    1
    49    40    37    1
    50    38    37    1
    51     1     2    1
    52    36    37    1
    53    41    42    2
    54    34    33    1
    55   102   100   ar
    56    35    33    1
    57     2     5    1
    58     2     3    1
    59    27    26    2
    60    33    30    1
    61     5     6    1
    62    94    93    1
    63   100    99    1
    64   100   101   ar
    65    99    96    1
    66    15    14    1
    67    90    91    1
    68    90    87    1
    69     6     7    1
    70     8     7    1
    71     8     9    1
    72    10     3   am
    73    10    11    1
    74     3     4    2
    75    26    28   am
    76    26    25    1
    77    92    93    1
    78    92    91    1
    79    14    11    1
    80    30    29    1
    81    30    31    1
    82    97    98    2
    83    97    96    1
    84    96    95    1
    85    87    86    1
    86    87    88    1
    87    29    22   am
    88    11    12    1
    89    25    24    1
    90    24    21    1
    91    31    32    2
    92    16    12   am
    93    16    17    1
    94    22    21    1
    95    22    23    2
    96    88    89    2
    97    20    21    1
    98    20    18   am
    99    12    13    2
   100    17    18    1
   101    18    19    2
