@<TRIPOS>MOLECULE
tmp/1vkyB00.pdb
 82 77 0 0 0
SMALL
GASTEIGER

@<TRIPOS>ATOM
      1  N         38.4250   11.5500   37.8090 N.3    56  ASN56      -0.1240
      2  CA        37.0770   11.1690   38.0790 C.3    56  ASN56       0.1653
      3  C         36.3370   10.8730   36.7860 C.2    56  ASN56       0.2266
      4  O         36.4740   11.6120   35.8150 O.2    56  ASN56      -0.2867
      5  CB        36.3340   12.3190   38.7750 C.3    56  ASN56       0.1155
      6  CG        34.8970   11.9340   39.1790 C.2    56  ASN56       0.2627
      7  OD1       34.7000   11.1180   40.0520 O.2    56  ASN56      -0.2716
      8  ND2       33.9020   12.5210   38.5100 N.am   56  ASN56      -0.0877
      9  N         34.9660   18.4420   34.2950 N.3   138  THR138     -0.1203
     10  CA        35.6740   18.6300   33.0530 C.3   138  THR138      0.1994
     11  C         37.1850   18.9940   33.1240 C.2   138  THR138      0.2618
     12  O         37.7550   19.1750   32.0720 O.2   138  THR138     -0.2717
     13  CB        34.9880   19.7330   32.1680 C.3   138  THR138      0.1784
     14  OG1       35.1030   21.0250   32.8030 O.3   138  THR138     -0.2211
     15  CG2       33.4720   19.4900   31.9410 C.3   138  THR138      0.0376
     16  N         37.8290   19.1240   34.2920 N.am  139  ALA139     -0.1965
     17  CA        39.3020   19.4560   34.3250 C.3   139  ALA139      0.1728
     18  C         40.1530   18.4380   33.5470 C.2   139  ALA139      0.2616
     19  O         41.1200   18.8010   32.8840 O.2   139  ALA139     -0.2715
     20  CB        39.8180   19.6220   35.7710 C.3   139  ALA139      0.0334
     21  N         39.7430   17.1690   33.6180 N.am  140  GLY140     -0.1955
     22  CA        40.3370   16.0540   32.8820 C.3   140  GLY140      0.1869
     23  C         40.3600   16.1920   31.3730 C.2   140  GLY140      0.2309
     24  O         41.1760   15.5870   30.7220 O.2   140  GLY140     -0.2863
     25  N         42.8230   15.1740   39.8460 N.3   195  VAL195     -0.1231
     26  CA        42.3910   15.9360   38.6730 C.3   195  VAL195      0.1692
     27  C         40.9270   16.2840   38.8540 C.2   195  VAL195      0.2593
     28  O         40.0610   15.3960   38.7430 O.2   195  VAL195     -0.2718
     29  CB        42.6090   15.1480   37.3760 C.3   195  VAL195      0.0266
     30  CG1       42.1030   15.9900   36.1840 C.3   195  VAL195      0.0020
     31  CG2       44.0790   14.7980   37.2290 C.3   195  VAL195      0.0020
     32  N         40.6800   17.5400   39.2200 N.am  196  GLY196     -0.1942
     33  CA        39.3180   18.0520   39.4560 C.3   196  GLY196      0.2014
     34  C         38.8720   18.0220   40.9000 C.2   196  GLY196      0.2640
     35  O         39.2990   17.1790   41.6570 O.2   196  GLY196     -0.2714
     36  N         38.0180   18.9690   41.2800 N.am  197  THR197     -0.1936
     37  CA        37.5060   19.1320   42.6380 C.3   197  THR197      0.2028
     38  C         36.6110   17.9940   43.0780 C.2   197  THR197      0.2642
     39  O         36.5660   17.6490   44.2890 O.2   197  THR197     -0.2714
     40  CB        36.7050   20.4380   42.7760 C.3   197  THR197      0.1808
     41  OG1       35.6840   20.4840   41.7720 O.3   197  THR197     -0.2208
     42  CG2       37.5700   21.6610   42.4920 C.3   197  THR197      0.0379
     43  N         35.9440   17.3490   42.1230 N.am  198  THR198     -0.1950
     44  CA        35.1690   16.1230   42.4820 C.3   198  THR198      0.1897
     45  C         36.0970   15.0390   43.0270 C.2   198  THR198      0.2313
     46  O         35.8260   14.4320   44.0580 O.2   198  THR198     -0.2863
     47  CB        34.4020   15.5850   41.2860 C.3   198  THR198      0.1794
     48  OG1       33.4480   16.5700   40.8850 O.3   198  THR198     -0.2208
     49  CG2       33.5400   14.3570   41.6770 C.3   198  THR198      0.0378
     50  N         42.8500   21.7200   38.2350 N.3   237  THR237     -0.1203
     51  CA        41.4870   22.1940   38.2690 C.3   237  THR237      0.1994
     52  C         41.2800   23.4110   37.3500 C.2   237  THR237      0.2617
     53  O         42.2250   24.0520   36.9270 O.2   237  THR237     -0.2717
     54  CB        41.1240   22.5330   39.7150 C.3   237  THR237      0.1784
     55  OG1       39.7260   22.8800   39.8070 O.3   237  THR237     -0.2211
     56  CG2       41.8790   23.7620   40.2020 C.3   237  THR237      0.0376
     57  N         40.0180   23.7190   37.0610 N.am  238  ASN238     -0.1974
     58  CA        39.6810   24.9040   36.2560 C.3   238  ASN238      0.1688
     59  C         39.7220   26.1580   37.0840 C.2   238  ASN238      0.2292
     60  O         39.9940   26.1220   38.2830 O.2   238  ASN238     -0.2864
     61  CB        38.2960   24.7230   35.5930 C.3   238  ASN238      0.1181
     62  CG        38.2610   23.5670   34.5650 C.2   238  ASN238      0.2629
     63  OD1       39.2720   23.2170   33.9490 O.2   238  ASN238     -0.2716
     64  ND2       37.0830   22.9790   34.4010 N.am  238  ASN238     -0.0877
     65  N         37.5450   28.9420   38.6830 N.3   240  HIS240     -0.1241
     66  CA        36.1720   28.9080   39.1620 C.3   240  HIS240      0.1621
     67  C         35.6140   30.3110   39.2880 C.2   240  HIS240      0.2264
     68  O         36.3480   31.2630   39.2740 O.2   240  HIS240     -0.2867
     69  CB        36.1010   28.1330   40.4690 C.3   240  HIS240      0.0745
     70  CG        36.7490   26.7690   40.3820 C.ar  240  HIS240      0.0817
     71  ND1       36.2310   25.7560   39.6060 N.ar  240  HIS240     -0.2268
     72  CD2       37.9110   26.2910   40.8940 C.ar  240  HIS240      0.1154
     73  CE1       37.0250   24.6970   39.6730 C.ar  240  HIS240      0.1986
     74  NE2       38.0510   24.9960   40.4490 N.ar  240  HIS240     -0.2212
     75  N         33.4630   26.0420   44.6840 N.3   246  LEU246     -0.1245
     76  CA        34.6840   25.4470   44.1290 C.3   246  LEU246      0.1561
     77  C         35.9070   26.3370   44.3730 C.2   246  LEU246      0.2260
     78  O         36.9870   25.8520   44.6250 O.2   246  LEU246     -0.2867
     79  CB        34.5290   25.1350   42.6340 C.3   246  LEU246      0.0270
     80  CG        33.3750   24.1620   42.3150 C.3   246  LEU246      0.0019
     81  CD1       33.3590   23.7830   40.8520 C.3   246  LEU246      0.0001
     82  CD2       33.5170   22.9040   43.1400 C.3   246  LEU246      0.0001
@<TRIPOS>BOND
     1    24    23    2
     2    23    22    1
     3    15    13    1
     4    12    11    2
     5    13    14    1
     6    13    10    1
     7    22    21    1
     8    19    18    2
     9    10    11    1
    10    10     9    1
    11    11    16   am
    12    18    21   am
    13    18    17    1
    14    63    62    2
    15    16    17    1
    16    17    20    1
    17    64    62   am
    18    62    61    1
    19    61    58    1
    20     4     3    2
    21    30    29    1
    22    58    57    1
    23    58    59    1
    24     3     2    1
    25    53    52    2
    26    57    52   am
    27    59    60    2
    28    31    29    1
    29    52    51    1
    30    29    26    1
    31     1     2    1
    32     2     5    1
    33    50    51    1
    34    51    54    1
    35     8     6   am
    36    26    27    1
    37    26    25    1
    38    65    66    1
    39    28    27    2
    40     5     6    1
    41    27    32   am
    42    66    67    1
    43    66    69    1
    44     6     7    2
    45    32    33    1
    46    68    67    2
    47    33    34    1
    48    71    73   ar
    49    71    70   ar
    50    73    74   ar
    51    54    55    1
    52    54    56    1
    53    70    69    1
    54    70    72   ar
    55    74    72   ar
    56    81    80    1
    57    48    47    1
    58    34    36   am
    59    34    35    2
    60    36    37    1
    61    47    49    1
    62    47    44    1
    63    41    40    1
    64    43    44    1
    65    43    38   am
    66    80    79    1
    67    80    82    1
    68    44    45    1
    69    42    40    1
    70    79    76    1
    71    37    40    1
    72    37    38    1
    73    45    46    2
    74    38    39    2
    75    76    77    1
    76    76    75    1
    77    77    78    2
