@<TRIPOS>MOLECULE
tmp/1vl1A00.pdb
 142 135 0 0 0
SMALL
GASTEIGER

@<TRIPOS>ATOM
      1  N          6.3370   21.5820   17.1910 N.3    38  ALA38      -0.1231
      2  CA         6.8150   22.9360   17.0190 C.3    38  ALA38       0.1694
      3  C          8.3300   22.9070   16.8880 C.2    38  ALA38       0.2593
      4  O          9.0210   22.0250   17.4360 O.2    38  ALA38      -0.2718
      5  CB         6.4350   23.7860   18.1710 C.3    38  ALA38       0.0304
      6  N          8.8890   23.9110   16.2290 N.am   39  GLY39      -0.1942
      7  CA        10.3200   24.1490   16.3200 C.3    39  GLY39       0.2014
      8  C         10.6370   25.0390   17.5270 C.2    39  GLY39       0.2639
      9  O          9.8660   25.1150   18.4960 O.2    39  GLY39      -0.2714
     10  N         11.7850   25.6770   17.4900 N.am   40  GLY40      -0.1939
     11  CA        12.1800   26.6530   18.4860 C.3    40  GLY40       0.2014
     12  C         13.1060   26.1340   19.5470 C.2    40  GLY40       0.2639
     13  O         13.3640   24.9460   19.6620 O.2    40  GLY40      -0.2714
     14  N         13.5730   27.0550   20.3630 N.am   41  ARG41      -0.1963
     15  CA        14.7040   26.7680   21.2310 C.3    41  ARG41       0.1729
     16  C         14.3890   25.8140   22.3370 C.2    41  ARG41       0.2617
     17  O         15.2910   25.1440   22.8130 O.2    41  ARG41      -0.2715
     18  CB        15.2760   28.0650   21.7780 C.3    41  ARG41       0.0348
     19  CG        15.8270   28.8910   20.6020 C.3    41  ARG41       0.0492
     20  CD        16.6150   30.1330   20.9590 C.3    41  ARG41       0.2205
     21  NE        15.7570   31.2730   21.3250 N.pl3  41  ARG41      -0.0865
     22  CZ        16.2010   32.3080   22.0350 C.cat  41  ARG41       0.5346
     23  NH1       17.4630   32.3410   22.4470 N.pl3  41  ARG41       0.1354
     24  NH2       15.3970   33.3010   22.3440 N.pl3  41  ARG41       0.1354
     25  N         13.1320   25.7500   22.7820 N.am   42  THR42      -0.1937
     26  CA        12.8230   24.8140   23.8490 C.3    42  THR42       0.2013
     27  C         12.5270   23.3710   23.4220 C.2    42  THR42       0.2484
     28  O         13.0490   22.4650   24.0480 O.2    42  THR42      -0.2729
     29  CB        11.7420   25.3550   24.7920 C.3    42  THR42       0.1807
     30  OG1       12.1700   26.6270   25.2750 O.3    42  THR42      -0.2208
     31  CG2       11.6550   24.5130   25.9960 C.3    42  THR42       0.0379
     32  N         11.6750   23.1320   22.4330 N.am   43  PRO43      -0.2726
     33  CA        11.4440   21.7710   21.9560 C.3    43  PRO43       0.1402
     34  C         12.6660   21.0390   21.3760 C.2    43  PRO43       0.2269
     35  O         12.7750   19.8270   21.5150 O.2    43  PRO43      -0.2865
     36  CB        10.3340   21.9760   20.9230 C.3    43  PRO43       0.0296
     37  CG         9.6440   23.2510   21.3340 C.3    43  PRO43       0.0237
     38  CD        10.7480   24.0940   21.7980 C.3    43  PRO43       0.0939
     39  N          4.1290   24.5000   12.1700 N.3    66  ASP66      -0.1239
     40  CA         4.2620   25.6790   11.3690 C.3    66  ASP66       0.1674
     41  C          5.6340   25.7040   10.6990 C.2    66  ASP66       0.2266
     42  O          6.5700   25.0150   11.0810 O.2    66  ASP66      -0.2867
     43  CB         4.0710   26.9520   12.1980 C.3    66  ASP66       0.1410
     44  CG         5.1610   27.1410   13.2090 C.2    66  ASP66       0.3668
     45  OD1        5.2230   26.4030   14.2240 O.co2  66  ASP66      -0.2456
     46  OD2        6.0250   27.9880   13.0040 O.co2  66  ASP66      -0.2456
     47  N          8.4720   28.6320    8.7430 N.3    68  ARG68      -0.1245
     48  CA         8.8930   29.9130    8.2060 C.3    68  ARG68       0.1563
     49  C          9.0190   29.7760    6.6970 C.2    68  ARG68       0.2260
     50  O          9.6020   28.8160    6.1820 O.2    68  ARG68      -0.2867
     51  CB        10.2240   30.3360    8.8430 C.3    68  ARG68       0.0307
     52  CG        10.0760   30.7700   10.2920 C.3    68  ARG68       0.0489
     53  CD        10.1510   29.6380   11.2950 C.3    68  ARG68       0.2205
     54  NE        10.2870   30.2100   12.6330 N.pl3  68  ARG68      -0.0865
     55  CZ        11.4140   30.5970   13.1900 C.cat  68  ARG68       0.5346
     56  NH1       12.5500   30.4620   12.5740 N.pl3  68  ARG68       0.1354
     57  NH2       11.4080   31.1400   14.3900 N.pl3  68  ARG68       0.1354
     58  N         12.1280   25.5020   10.3450 N.3    78  ASN78      -0.1240
     59  CA        11.7850   24.5120   11.3350 C.3    78  ASN78       0.1653
     60  C         12.1170   23.1170   10.8380 C.2    78  ASN78       0.2266
     61  O         12.6010   22.2810   11.6190 O.2    78  ASN78      -0.2867
     62  CB        10.3230   24.5830   11.7140 C.3    78  ASN78       0.1155
     63  CG         9.9970   25.7800   12.5520 C.2    78  ASN78       0.2627
     64  OD1       10.8350   26.2610   13.2780 O.2    78  ASN78      -0.2716
     65  ND2        8.7140   26.1690   12.5590 N.am   78  ASN78      -0.0877
     66  N          5.7310   24.9090   21.5610 N.3   130  GLY130     -0.1210
     67  CA         6.3140   26.0200   22.3260 C.3   130  GLY130      0.1956
     68  C          5.3830   27.2040   22.4360 C.2   130  GLY130      0.2612
     69  O          4.2750   27.1980   21.8960 O.2   130  GLY130     -0.2717
     70  N          5.8190   28.2200   23.1470 N.am  131  MET131     -0.1965
     71  CA         5.1030   29.4910   23.1640 C.3   131  MET131      0.1736
     72  C          6.1330   30.5780   23.2210 C.2   131  MET131      0.2617
     73  O          7.0930   30.4670   23.9350 O.2   131  MET131     -0.2715
     74  CB         4.2330   29.5800   24.4170 C.3   131  MET131      0.0427
     75  CG         3.5430   30.9050   24.5740 C.3   131  MET131      0.0599
     76  SD         2.6390   31.1180   26.1240 S.3   131  MET131     -0.1393
     77  CE         4.0200   31.4110   27.1800 C.3   131  MET131      0.0692
     78  N          5.9520   31.6040   22.4190 N.am  132  GLY132     -0.1941
     79  CA         6.8320   32.7130   22.3980 C.3   132  GLY132      0.1998
     80  C          6.6730   33.5720   23.6210 C.2   132  GLY132      0.2480
     81  O          5.6650   33.4870   24.3210 O.2   132  GLY132     -0.2729
     82  N          7.6180   34.4720   23.8570 N.am  133  PRO133     -0.2726
     83  CA         7.5240   35.4270   24.9630 C.3   133  PRO133      0.1402
     84  C          6.4220   36.4890   24.7920 C.2   133  PRO133      0.2269
     85  O          6.1340   37.2700   25.7220 O.2   133  PRO133     -0.2865
     86  CB         8.9160   36.0550   25.0070 C.3   133  PRO133      0.0296
     87  CG         9.4290   35.9030   23.6520 C.3   133  PRO133      0.0237
     88  CD         8.8210   34.6830   23.0180 C.3   133  PRO133      0.0939
     89  N          2.5660   33.8000   21.5470 N.3   136  HIS136     -0.1241
     90  CA         2.2240   33.1790   20.2990 C.3   136  HIS136      0.1621
     91  C          2.4570   31.6470   20.3490 C.2   136  HIS136      0.2264
     92  O          3.2230   31.1400   21.1800 O.2   136  HIS136     -0.2867
     93  CB         2.9610   33.8690   19.1200 C.3   136  HIS136      0.0745
     94  CG         4.2890   33.2770   18.7830 C.ar  136  HIS136      0.0817
     95  ND1        5.4770   33.7880   19.2620 N.ar  136  HIS136     -0.2268
     96  CD2        4.6200   32.2350   17.9800 C.ar  136  HIS136      0.1154
     97  CE1        6.4850   33.0680   18.7820 C.ar  136  HIS136      0.1986
     98  NE2        5.9960   32.1310   17.9880 N.ar  136  HIS136     -0.2212
     99  N          2.7070   28.0480   17.6260 N.3   138  ALA138     -0.1245
    100  CA         2.9040   27.6880   16.2460 C.3   138  ALA138      0.1562
    101  C          3.4200   28.9590   15.5370 C.2   138  ALA138      0.2260
    102  O          4.3220   29.5960   16.0800 O.2   138  ALA138     -0.2867
    103  CB         1.6410   27.0530   15.6090 C.3   138  ALA138      0.0290
    104  N          0.2200   34.4270   15.4770 N.3   141  PHE141     -0.1241
    105  CA         0.5880   35.6580   16.1670 C.3   141  PHE141      0.1605
    106  C         -0.6360   36.5240   16.4260 C.2   141  PHE141      0.2264
    107  O         -0.6270   37.3320   17.3490 O.2   141  PHE141     -0.2867
    108  CB         1.6070   36.4610   15.3490 C.3   141  PHE141      0.0534
    109  CG         2.9840   35.8150   15.3110 C.ar  141  PHE141     -0.0203
    110  CD1        3.9130   36.0590   16.2740 C.ar  141  PHE141     -0.0042
    111  CD2        3.2960   34.9120   14.3450 C.ar  141  PHE141     -0.0042
    112  CE1        5.1410   35.4280   16.2470 C.ar  141  PHE141     -0.0003
    113  CE2        4.5040   34.2530   14.3380 C.ar  141  PHE141     -0.0003
    114  CZ         5.4120   34.4980   15.2760 C.ar  141  PHE141     -0.0000
    115  N          9.7930   36.9060   14.6480 N.3   160  ASP160     -0.1239
    116  CA        11.2160   37.1010   14.4300 C.3   160  ASP160      0.1674
    117  C         11.8360   35.7120   14.1480 C.2   160  ASP160      0.2266
    118  O         11.6590   34.7830   14.9430 O.2   160  ASP160     -0.2867
    119  CB        11.7760   37.7690   15.6800 C.3   160  ASP160      0.1410
    120  CG        13.1510   38.3130   15.4750 C.2   160  ASP160      0.3668
    121  OD1       13.3190   39.4690   14.9960 O.co2 160  ASP160     -0.2456
    122  OD2       14.1260   37.6170   15.7630 O.co2 160  ASP160     -0.2456
    123  N          4.7040   33.1640    7.2580 N.3   165  ARG165     -0.1245
    124  CA         4.6580   31.8480    7.8950 C.3   165  ARG165      0.1563
    125  C          3.4710   31.0320    7.3640 C.2   165  ARG165      0.2260
    126  O          2.4110   31.5970    6.9850 O.2   165  ARG165     -0.2867
    127  CB         4.4960   31.8990    9.4300 C.3   165  ARG165      0.0307
    128  CG         5.2090   32.9690   10.2220 C.3   165  ARG165      0.0489
    129  CD         6.6290   32.8000   10.1620 C.3   165  ARG165      0.2205
    130  NE         7.4270   33.6710   11.0720 N.pl3 165  ARG165     -0.0865
    131  CZ         7.8340   33.3310   12.2860 C.cat 165  ARG165      0.5346
    132  NH1        7.3840   32.2240   12.8960 N.pl3 165  ARG165      0.1354
    133  NH2        8.6820   34.1180   12.9190 N.pl3 165  ARG165      0.1354
    134  N          8.0590   33.9080   29.8830 N.3   188  LYS188     -0.1245
    135  CA         7.0280   32.9860   29.4410 C.3   188  LYS188      0.1561
    136  C          6.1340   32.5860   30.6150 C.2   188  LYS188      0.2260
    137  O          4.9430   32.4240   30.4500 O.2   188  LYS188     -0.2867
    138  CB         7.6030   31.7860   28.7520 C.3   188  LYS188      0.0271
    139  CG         8.3540   32.2010   27.5020 C.3   188  LYS188      0.0035
    140  CD         8.7480   31.0710   26.7290 C.3   188  LYS188      0.0206
    141  CE         9.6130   31.5100   25.5430 C.3   188  LYS188      0.1093
    142  NZ         9.8950   30.2990   24.7390 N.3   188  LYS188     -0.1314
@<TRIPOS>BOND
     1    50    49    2
     2    49    48    1
     3   126   125    2
     4   123   124    1
     5   125   124    1
     6   124   127    1
     7    48    47    1
     8    48    51    1
     9    51    52    1
    10   127   128    1
    11   129   128    1
    12   129   130    1
    13    52    53    1
    14    58    59    1
    15    41    42    2
    16    41    40    1
    17    60    59    1
    18    60    61    2
    19   130   131    2
    20    53    54    1
    21    59    62    1
    22    40    39    1
    23    40    43    1
    24    62    63    1
    25    43    44    1
    26   131   132    1
    27   131   133    1
    28    63    65   am
    29    63    64    2
    30    56    55    1
    31    54    55    2
    32    46    44   ar
    33    55    57    1
    34    44    45   ar
    35   117   116    1
    36   117   118    2
    37   113   111   ar
    38   113   114   ar
    39   111   109   ar
    40   116   115    1
    41   116   119    1
    42   121   120   ar
    43   114   112   ar
    44   109   108    1
    45   109   110   ar
    46   108   105    1
    47   120   119    1
    48   120   122   ar
    49   104   105    1
    50   101   102    2
    51   101   100    1
    52   103   100    1
    53   105   106    1
    54     6     7    1
    55     6     3   am
    56   100    99    1
    57   112   110   ar
    58     7     8    1
    59   106   107    2
    60     3     2    1
    61     3     4    2
    62     2     1    1
    63     2     5    1
    64    10     8   am
    65    10    11    1
    66     8     9    2
    67    96    98   ar
    68    96    94   ar
    69    98    97   ar
    70    11    12    1
    71    97    95   ar
    72    94    93    1
    73    94    95   ar
    74    93    90    1
    75    12    13    2
    76    12    14   am
    77    90    91    1
    78    90    89    1
    79    91    92    2
    80    14    15    1
    81    19    20    1
    82    19    18    1
    83    36    37    1
    84    36    33    1
    85    20    21    1
    86    15    18    1
    87    15    16    1
    88    21    22    2
    89    37    38    1
    90    34    35    2
    91    34    33    1
    92    66    67    1
    93    38    32    1
    94    69    68    2
    95    33    32    1
    96    22    24    1
    97    22    23    1
    98    67    68    1
    99    16    25   am
   100    16    17    2
   101    79    78    1
   102    79    80    1
   103    78    72   am
   104    32    27   am
   105    68    70   am
   106    25    26    1
   107    88    87    1
   108    88    82    1
   109    70    71    1
   110    71    72    1
   111    71    74    1
   112    72    73    2
   113    27    26    1
   114    27    28    2
   115    80    82   am
   116    80    81    2
   117    87    86    1
   118    26    29    1
   119    82    83    1
   120    74    75    1
   121    75    76    1
   122   142   141    1
   123    29    30    1
   124    29    31    1
   125    84    83    1
   126    84    85    2
   127    83    86    1
   128   141   140    1
   129    76    77    1
   130   140   139    1
   131   139   138    1
   132   138   135    1
   133   135   134    1
   134   135   136    1
   135   137   136    2
