@<TRIPOS>MOLECULE
tmp/1vlhC00.pdb
 168 164 0 0 0
SMALL
GASTEIGER

@<TRIPOS>ATOM
      1  N         18.4510   23.7860   16.5980 N.3     6  PRO6       -0.2102
      2  CA        18.7390   23.4940   17.9750 C.3     6  PRO6        0.1504
      3  C         20.0650   24.1180   18.4420 C.2     6  PRO6        0.2576
      4  O         21.0290   24.1860   17.6940 O.2     6  PRO6       -0.2718
      5  CB        18.8870   21.9630   17.9740 C.3     6  PRO6        0.0282
      6  CG        19.5810   21.6900   16.6590 C.3     6  PRO6        0.0208
      7  CD        19.0550   22.7700   15.7110 C.3     6  PRO6        0.0893
      8  N         20.1260   24.5020   19.7030 N.am    7  GLY7       -0.1943
      9  CA        21.3500   25.0540   20.2160 C.3     7  GLY7        0.2014
     10  C         21.2680   25.4240   21.6540 C.2     7  GLY7        0.2640
     11  O         20.1870   25.4580   22.2150 O.2     7  GLY7       -0.2714
     12  N         22.4290   25.6590   22.2550 N.am    8  SER8       -0.1935
     13  CA        22.5040   26.1300   23.6410 C.3     8  SER8        0.2055
     14  C         22.0690   27.6050   23.7080 C.2     8  SER8        0.2643
     15  O         21.5070   28.0180   24.6650 O.2     8  SER8       -0.2714
     16  CB        23.9270   25.9600   24.2050 C.3     8  SER8        0.2130
     17  OG        24.3150   24.5960   24.2260 O.3     8  SER8       -0.2179
     18  N         22.3120   28.3930   22.6570 N.am    9  PHE9       -0.1973
     19  CA        21.9340   29.8310   22.6470 C.3     9  PHE9        0.1639
     20  C         22.1720   30.4690   23.9870 C.2     9  PHE9        0.2290
     21  O         21.2390   31.0060   24.6040 O.2     9  PHE9       -0.2864
     22  CB        20.4620   29.9880   22.2540 C.3     9  PHE9        0.0560
     23  CG        20.1500   29.3440   20.9580 C.ar    9  PHE9       -0.0200
     24  CD1       20.7110   29.8390   19.7980 C.ar    9  PHE9       -0.0042
     25  CD2       19.3750   28.1920   20.8940 C.ar    9  PHE9       -0.0042
     26  CE1       20.4970   29.1950   18.5710 C.ar    9  PHE9       -0.0003
     27  CE2       19.1390   27.5660   19.6650 C.ar    9  PHE9       -0.0003
     28  CZ        19.7040   28.0750   18.5150 C.ar    9  PHE9       -0.0000
     29  N         23.7670   33.7210   15.3000 N.3    16  HIS16      -0.1241
     30  CA        22.6020   32.8500   15.3810 C.3    16  HIS16       0.1621
     31  C         21.3830   33.4780   14.6980 C.2    16  HIS16       0.2264
     32  O         20.6030   32.7980   14.0140 O.2    16  HIS16      -0.2867
     33  CB        22.2440   32.5410   16.8540 C.3    16  HIS16       0.0745
     34  CG        23.2990   31.8050   17.6110 C.ar   16  HIS16       0.0817
     35  ND1       23.4850   31.9740   18.9630 N.ar   16  HIS16      -0.2268
     36  CD2       24.2160   30.8890   17.2180 C.ar   16  HIS16       0.1154
     37  CE1       24.4610   31.1870   19.3740 C.ar   16  HIS16       0.1986
     38  NE2       24.9210   30.5130   18.3370 N.ar   16  HIS16      -0.2212
     39  N         18.2090   23.8030   23.6880 N.3    35  THR35      -0.1203
     40  CA        18.3870   22.4180   24.1190 C.3    35  THR35       0.1994
     41  C         19.6340   22.2680   24.9940 C.2    35  THR35       0.2618
     42  O         20.6450   22.9370   24.8060 O.2    35  THR35      -0.2717
     43  CB        18.2600   21.3250   22.9710 C.3    35  THR35       0.1784
     44  OG1       19.4050   20.4680   22.9730 O.3    35  THR35      -0.2211
     45  CG2       18.2270   21.8730   21.5860 C.3    35  THR35       0.0376
     46  N         19.5210   21.3660   25.9600 N.am   36  GLU36      -0.1965
     47  CA        20.5910   21.0940   26.9370 C.3    36  GLU36       0.1733
     48  C         21.8110   20.4070   26.2590 C.2    36  GLU36       0.2616
     49  O         21.6960   19.3140   25.6720 O.2    36  GLU36      -0.2715
     50  CB        20.0810   20.2290   28.1200 C.3    36  GLU36       0.0429
     51  CG        21.2060   19.6760   28.9910 C.3    36  GLU36       0.1163
     52  CD        20.7360   18.9370   30.2380 C.2    36  GLU36       0.3649
     53  OE1       19.5250   18.6510   30.3670 O.co2  36  GLU36      -0.2457
     54  OE2       21.6040   18.6260   31.0960 O.co2  36  GLU36      -0.2457
     55  N         22.9640   21.0600   26.3430 N.am   37  ASN37      -0.1959
     56  CA        24.2120   20.4200   25.9480 C.3    37  ASN37       0.1804
     57  C         24.8970   19.9210   27.2190 C.2    37  ASN37       0.2463
     58  O         25.3950   20.7400   28.0070 O.2    37  ASN37      -0.2730
     59  CB        25.1370   21.3600   25.1830 C.3    37  ASN37       0.1195
     60  CG        26.3740   20.6480   24.6300 C.2    37  ASN37       0.2630
     61  OD1       26.8620   19.6790   25.2060 O.2    37  ASN37      -0.2716
     62  ND2       26.8860   21.1430   23.5110 N.am   37  ASN37      -0.0877
     63  N         24.9470   18.5900   27.4120 N.am   38  PRO38      -0.2716
     64  CA        25.4840   18.0260   28.6630 C.3    38  PRO38       0.1536
     65  C         26.9920   18.2300   28.7940 C.2    38  PRO38       0.2598
     66  O         27.5340   18.0050   29.8670 O.2    38  PRO38      -0.2715
     67  CB        25.1570   16.5370   28.5590 C.3    38  PRO38       0.0310
     68  CG        25.1540   16.2670   27.1150 C.3    38  PRO38       0.0237
     69  CD        24.5620   17.5180   26.4600 C.3    38  PRO38       0.0939
     70  N         27.6600   18.6680   27.7280 N.am   39  ARG39      -0.1964
     71  CA        29.0970   18.9320   27.7800 C.3    39  ARG39       0.1729
     72  C         29.4130   20.4180   28.0850 C.2    39  ARG39       0.2616
     73  O         30.5750   20.8300   28.0360 O.2    39  ARG39      -0.2715
     74  CB        29.7590   18.4230   26.4780 C.3    39  ARG39       0.0348
     75  CG        29.6950   16.8770   26.3390 C.3    39  ARG39       0.0492
     76  CD        30.6130   16.2730   25.2710 C.3    39  ARG39       0.2205
     77  NE        29.9410   16.0970   23.9790 N.pl3  39  ARG39      -0.0865
     78  CZ        29.3880   14.9570   23.5390 C.cat  39  ARG39       0.5346
     79  NH1       29.3950   13.8430   24.2750 N.pl3  39  ARG39       0.1354
     80  NH2       28.8170   14.9280   22.3350 N.pl3  39  ARG39       0.1354
     81  N         28.3710   21.1880   28.4250 N.am   40  LYS40      -0.1977
     82  CA        28.4800   22.6000   28.7790 C.3    40  LYS40       0.1596
     83  C         27.8030   22.8860   30.1300 C.2    40  LYS40       0.2287
     84  O         26.7620   22.2930   30.4500 O.2    40  LYS40      -0.2864
     85  CB        27.8210   23.4500   27.6650 C.3    40  LYS40       0.0298
     86  CG        28.5610   23.4010   26.3490 C.3    40  LYS40       0.0038
     87  CD        27.7550   24.0850   25.2230 C.3    40  LYS40       0.0206
     88  CE        28.5710   24.3160   23.9490 C.3    40  LYS40       0.1093
     89  NZ        27.7080   24.8450   22.7670 N.3    40  LYS40      -0.1314
     90  N         15.7140   16.7700   26.8540 N.3    70  GLY70      -0.1210
     91  CA        16.1350   15.3910   26.5520 C.3    70  GLY70       0.1956
     92  C         16.9160   15.1890   25.2300 C.2    70  GLY70       0.2612
     93  O         17.6930   16.0430   24.7520 O.2    70  GLY70      -0.2717
     94  N         16.7170   14.0100   24.6540 N.am   71  LEU71      -0.1965
     95  CA        17.3760   13.6340   23.4160 C.3    71  LEU71       0.1728
     96  C         16.7260   14.4010   22.3070 C.2    71  LEU71       0.2616
     97  O         15.5170   14.3810   22.1430 O.2    71  LEU71      -0.2715
     98  CB        17.2290   12.1490   23.1790 C.3    71  LEU71       0.0311
     99  CG        17.8270   11.4680   21.9530 C.3    71  LEU71       0.0022
    100  CD1       19.3200   11.1880   22.1590 C.3    71  LEU71       0.0001
    101  CD2       17.0440   10.1560   21.6830 C.3    71  LEU71       0.0001
    102  N         17.5380   15.1220   21.5570 N.am   72  LEU72      -0.1963
    103  CA        17.0500   16.0320   20.4970 C.3    72  LEU72       0.1728
    104  C         16.0690   15.3740   19.5380 C.2    72  LEU72       0.2616
    105  O         14.9930   15.9120   19.2610 O.2    72  LEU72      -0.2715
    106  CB        18.2170   16.5610   19.6860 C.3    72  LEU72       0.0311
    107  CG        17.8980   17.6100   18.6040 C.3    72  LEU72       0.0022
    108  CD1       17.2320   18.8140   19.2640 C.3    72  LEU72       0.0001
    109  CD2       19.1910   18.0280   17.9530 C.3    72  LEU72       0.0001
    110  N         16.4370   14.1980   19.0340 N.am   73  VAL73      -0.1977
    111  CA        15.6090   13.5520   18.0290 C.3    73  VAL73       0.1596
    112  C         14.2230   13.1750   18.5860 C.2    73  VAL73       0.2287
    113  O         13.2960   13.0430   17.8370 O.2    73  VAL73      -0.2864
    114  CB        16.2970   12.3290   17.3380 C.3    73  VAL73       0.0276
    115  CG1       17.5080   12.7800   16.5440 C.3    73  VAL73       0.0022
    116  CG2       16.6440   11.2300   18.3450 C.3    73  VAL73       0.0022
    117  N         21.7240   23.6440   11.2000 N.3    86  ARG86      -0.1245
    118  CA        22.8530   24.0450   12.0280 C.3    86  ARG86       0.1563
    119  C         23.7490   24.9690   11.2060 C.2    86  ARG86       0.2260
    120  O         23.7550   24.9140    9.9600 O.2    86  ARG86      -0.2867
    121  CB        23.6320   22.8080   12.4710 C.3    86  ARG86       0.0307
    122  CG        22.9070   21.8240   13.3450 C.3    86  ARG86       0.0489
    123  CD        22.8820   22.1640   14.8400 C.3    86  ARG86       0.2205
    124  NE        24.2230   22.1190   15.4020 N.pl3  86  ARG86      -0.0865
    125  CZ        24.5240   22.3940   16.6600 C.cat  86  ARG86       0.5346
    126  NH1       23.5700   22.7490   17.5190 N.pl3  86  ARG86       0.1354
    127  NH2       25.7910   22.3120   17.0690 N.pl3  86  ARG86       0.1354
    128  N         32.7360   17.1040   15.1030 N.3    96  TYR96      -0.1241
    129  CA        31.6850   17.0530   16.0990 C.3    96  TYR96       0.1605
    130  C         30.3010   17.1710   15.4340 C.2    96  TYR96       0.2264
    131  O         29.3650   16.4070   15.7190 O.2    96  TYR96      -0.2867
    132  CB        31.9460   18.1670   17.1120 C.3    96  TYR96       0.0534
    133  CG        30.8140   18.4920   18.0230 C.ar   96  TYR96      -0.0201
    134  CD1       30.4140   17.5960   19.0150 C.ar   96  TYR96      -0.0009
    135  CD2       30.1560   19.7170   17.9190 C.ar   96  TYR96      -0.0009
    136  CE1       29.3660   17.9130   19.9000 C.ar   96  TYR96       0.0417
    137  CE2       29.1080   20.0460   18.7960 C.ar   96  TYR96       0.0417
    138  CZ        28.7250   19.1340   19.7920 C.ar   96  TYR96       0.1957
    139  OH        27.6900   19.4600   20.6460 O.3    96  TYR96      -0.2866
    140  N         27.4630   14.1860   15.2570 N.3   100  MET100     -0.1245
    141  CA        26.1340   14.3610   15.7860 C.3   100  MET100      0.1570
    142  C         25.1020   14.1830   14.7070 C.2   100  MET100      0.2261
    143  O         24.0610   13.5950   14.9580 O.2   100  MET100     -0.2867
    144  CB        25.9110   15.7490   16.3390 C.3   100  MET100      0.0387
    145  CG        26.4270   15.9630   17.7220 C.3   100  MET100      0.0595
    146  SD        25.9730   17.6620   18.1200 S.3   100  MET100     -0.1393
    147  CE        25.8040   17.4920   19.8630 C.3   100  MET100      0.0692
    148  N         24.9450   10.4750   14.0790 N.3   103  ALA103     -0.1231
    149  CA        24.3370    9.8180   15.2090 C.3   103  ALA103      0.1694
    150  C         22.8570   10.0780   15.2050 C.2   103  ALA103      0.2592
    151  O         22.0850    9.1700   15.3430 O.2   103  ALA103     -0.2718
    152  CB        24.9340   10.3150   16.5020 C.3   103  ALA103      0.0304
    153  N         22.4700   11.3310   15.0460 N.am  104  ASN104     -0.1974
    154  CA        21.0580   11.6820   15.0200 C.3   104  ASN104      0.1688
    155  C         20.3010   10.9410   13.9100 C.2   104  ASN104      0.2292
    156  O         19.1550   10.5370   14.1040 O.2   104  ASN104     -0.2864
    157  CB        20.8830   13.1950   14.8740 C.3   104  ASN104      0.1181
    158  CG        21.2200   13.9300   16.1490 C.2   104  ASN104      0.2629
    159  OD1       21.1220   13.3510   17.1790 O.2   104  ASN104     -0.2716
    160  ND2       21.6630   15.1740   16.0670 N.am  104  ASN104     -0.0877
    161  N         19.6350    7.4750   14.9510 N.3   107  LEU107     -0.1245
    162  CA        18.5260    7.4090   15.9350 C.3   107  LEU107      0.1561
    163  C         17.1770    7.7710   15.3310 C.2   107  LEU107      0.2260
    164  O         16.1510    7.4320   15.8850 O.2   107  LEU107     -0.2867
    165  CB        18.8070    8.3140   17.1420 C.3   107  LEU107      0.0270
    166  CG        20.1160    7.9890   17.8610 C.3   107  LEU107      0.0019
    167  CD1       20.4810    9.0530   18.8680 C.3   107  LEU107      0.0001
    168  CD2       20.0150    6.6130   18.4950 C.3   107  LEU107      0.0001
@<TRIPOS>BOND
     1   120   119    2
     2   117   118    1
     3   119   118    1
     4   118   121    1
     5   121   122    1
     6   122   123    1
     7   155   156    2
     8   155   154    1
     9    32    31    2
    10   148   149    1
    11    31    30    1
    12   142   143    2
    13   142   141    1
    14   123   124    1
    15   157   154    1
    16   157   158    1
    17   161   162    1
    18   154   153    1
    19   153   150   am
    20   128   129    1
    21   150   149    1
    22   150   151    2
    23   149   152    1
    24   140   141    1
    25    29    30    1
    26   163   164    2
    27   163   162    1
    28    30    33    1
    29   124   125    2
    30   130   131    2
    31   130   129    1
    32     7     1    1
    33     7     6    1
    34   141   144    1
    35   162   165    1
    36   160   158   am
    37   129   132    1
    38   158   159    2
    39   144   145    1
    40   115   114    1
    41     1     2    1
    42     6     5    1
    43   125   127    1
    44   125   126    1
    45    33    34    1
    46   132   133    1
    47   165   166    1
    48    36    34   ar
    49    36    38   ar
    50   114   111    1
    51   114   116    1
    52    34    35   ar
    53     4     3    2
    54   145   146    1
    55   113   112    2
    56   166   168    1
    57   166   167    1
    58   135   133   ar
    59   135   137   ar
    60   109   107    1
    61     5     2    1
    62     2     3    1
    63   133   134   ar
    64   111   112    1
    65   111   110    1
    66   146   147    1
    67    38    37   ar
    68     3     8   am
    69    28    26   ar
    70    28    27   ar
    71    26    24   ar
    72   107   108    1
    73   107   106    1
    74   137   138   ar
    75    35    37   ar
    76   134   136   ar
    77   110   104   am
    78   105   104    2
    79   104   103    1
    80    27    25   ar
    81   106   103    1
    82     8     9    1
    83   138   136   ar
    84   138   139    1
    85    24    23   ar
    86     9    10    1
    87   103   102    1
    88    25    23   ar
    89    23    22    1
    90   102    96   am
    91    45    43    1
    92    10    11    2
    93    10    12   am
    94   101    99    1
    95    99   100    1
    96    99    98    1
    97    97    96    2
    98    22    19    1
    99    12    13    1
   100    96    95    1
   101    80    78    1
   102    19    18    1
   103    19    20    1
   104    18    14   am
   105    89    88    1
   106    43    44    1
   107    43    40    1
   108    98    95    1
   109    95    94    1
   110    62    60   am
   111    78    77    2
   112    78    79    1
   113    13    14    1
   114    13    16    1
   115    39    40    1
   116    14    15    2
   117    88    87    1
   118    77    76    1
   119    20    21    2
   120    40    41    1
   121    16    17    1
   122    60    59    1
   123    60    61    2
   124    94    92   am
   125    93    92    2
   126    42    41    2
   127    41    46   am
   128    59    56    1
   129    87    86    1
   130    92    91    1
   131    76    75    1
   132    49    48    2
   133    56    55    1
   134    56    57    1
   135    46    47    1
   136    48    55   am
   137    48    47    1
   138    75    74    1
   139    86    85    1
   140    69    68    1
   141    69    63    1
   142    74    71    1
   143    91    90    1
   144    47    50    1
   145    68    67    1
   146    57    63   am
   147    57    58    2
   148    63    64    1
   149    85    82    1
   150    70    71    1
   151    70    65   am
   152    71    72    1
   153    73    72    2
   154    72    81   am
   155    50    51    1
   156    81    82    1
   157    67    64    1
   158    64    65    1
   159    82    83    1
   160    65    66    2
   161    51    52    1
   162    83    84    2
   163    52    53   ar
   164    52    54   ar
