@<TRIPOS>MOLECULE
tmp/1vm6C01.pdb
 98 94 0 0 0
SMALL
GASTEIGER

@<TRIPOS>ATOM
      1  N          9.5220  -27.2090   16.6420 N.3    73  THR73      -0.1218
      2  CA         8.3810  -26.2990   16.6620 C.3    73  THR73       0.1862
      3  C          7.3130  -26.7560   15.6800 C.2    73  THR73       0.2287
      4  O          7.4980  -27.7450   14.9660 O.2    73  THR73      -0.2866
      5  CB         8.8140  -24.9100   16.2760 C.3    73  THR73       0.1770
      6  OG1        9.4950  -24.9740   15.0170 O.3    73  THR73      -0.2211
      7  CG2        9.7370  -24.3390   17.3410 C.3    73  THR73       0.0375
      8  N          9.4420  -24.4690   23.0450 N.3    96  TYR96      -0.1227
      9  CA         9.6050  -23.8440   21.7420 C.3    96  TYR96       0.1736
     10  C         10.7260  -22.7870   21.7930 C.2    96  TYR96       0.2595
     11  O         11.0740  -22.2160   20.7720 O.2    96  TYR96      -0.2718
     12  CB         8.2700  -23.2410   21.2870 C.3    96  TYR96       0.0548
     13  CG         7.2510  -24.2270   20.7090 C.ar   96  TYR96      -0.0200
     14  CD1        7.5710  -25.5580   20.4180 C.ar   96  TYR96      -0.0009
     15  CD2        5.9750  -23.7990   20.4160 C.ar   96  TYR96      -0.0009
     16  CE1        6.6380  -26.4160   19.8560 C.ar   96  TYR96       0.0417
     17  CE2        5.0390  -24.6410   19.8590 C.ar   96  TYR96       0.0417
     18  CZ         5.3570  -25.9530   19.5800 C.ar   96  TYR96       0.1957
     19  OH         4.3690  -26.7620   19.0290 O.3    96  TYR96      -0.2866
     20  N         11.2960  -22.5620   22.9750 N.am   97  ASN97      -0.1974
     21  CA        12.4210  -21.6110   23.1320 C.3    97  ASN97       0.1688
     22  C         13.2650  -22.0660   24.2880 C.2    97  ASN97       0.2292
     23  O         12.8100  -22.0640   25.4180 O.2    97  ASN97      -0.2864
     24  CB        11.8500  -20.2000   23.3910 C.3    97  ASN97       0.1181
     25  CG        12.8890  -19.1240   23.4340 C.2    97  ASN97       0.2629
     26  OD1       14.0500  -19.3760   23.7100 O.2    97  ASN97      -0.2716
     27  ND2       12.4790  -17.8980   23.1840 N.am   97  ASN97      -0.0877
     28  N         16.3980   -6.9690   15.6830 N.3   127  HIS127     -0.1241
     29  CA        16.7110   -8.1670   14.9030 C.3   127  HIS127      0.1621
     30  C         17.3370   -7.7760   13.5750 C.2   127  HIS127      0.2264
     31  O         17.4060   -6.6120   13.2020 O.2   127  HIS127     -0.2867
     32  CB        15.4550   -9.0290   14.6910 C.3   127  HIS127      0.0745
     33  CG        14.9640   -9.6810   15.9500 C.ar  127  HIS127      0.0817
     34  ND1       14.2250   -9.0050   16.8990 N.ar  127  HIS127     -0.2268
     35  CD2       15.1460  -10.9340   16.4360 C.ar  127  HIS127      0.1154
     36  CE1       13.9590   -9.8180   17.9070 C.ar  127  HIS127      0.1986
     37  NE2       14.5100  -10.9940   17.6550 N.ar  127  HIS127     -0.2212
     38  N          9.1740  -12.8090   20.9010 N.3   138  THR138     -0.1218
     39  CA         9.7520  -12.6750   22.2250 C.3   138  THR138      0.1862
     40  C          9.2940  -11.3610   22.9040 C.2   138  THR138      0.2287
     41  O          9.0170  -11.3670   24.0890 O.2   138  THR138     -0.2866
     42  CB        11.2740  -12.8070   22.1640 C.3   138  THR138      0.1770
     43  OG1       11.6260  -14.1420   21.7400 O.3   138  THR138     -0.2211
     44  CG2       11.8700  -12.5220   23.5230 C.3   138  THR138      0.0375
     45  N         21.2780  -11.2880   15.6970 N.3   161  PRO161     -0.2102
     46  CA        20.4310  -12.4660   16.0310 C.3   161  PRO161      0.1504
     47  C         19.1560  -12.1650   16.8130 C.2   161  PRO161      0.2576
     48  O         18.1100  -12.7370   16.5140 O.2   161  PRO161     -0.2718
     49  CB        21.3750  -13.3730   16.8250 C.3   161  PRO161      0.0282
     50  CG        22.7540  -12.9910   16.2810 C.3   161  PRO161      0.0208
     51  CD        22.6780  -11.4900   16.1110 C.3   161  PRO161      0.0893
     52  N         19.2450  -11.2840   17.8090 N.am  162  GLY162     -0.1957
     53  CA        18.0810  -10.9170   18.6260 C.3   162  GLY162      0.1869
     54  C         18.4400  -10.3000   19.9710 C.2   162  GLY162      0.2309
     55  O         18.9330  -10.9920   20.8520 O.2   162  GLY162     -0.2863
     56  N         16.5780   -7.9070   23.1440 N.3   164  HIS164     -0.1241
     57  CA        15.3760   -7.3150   23.7560 C.3   164  HIS164      0.1621
     58  C         15.7080   -6.5230   25.0170 C.2   164  HIS164      0.2264
     59  O         16.4800   -6.9850   25.8650 O.2   164  HIS164     -0.2867
     60  CB        14.3200   -8.3960   24.0850 C.3   164  HIS164      0.0745
     61  CG        13.8620   -9.1850   22.8990 C.ar  164  HIS164      0.0817
     62  ND1       14.5980  -10.2210   22.3670 N.ar  164  HIS164     -0.2268
     63  CD2       12.7330   -9.0980   22.1490 C.ar  164  HIS164      0.1154
     64  CE1       13.9560  -10.7240   21.3260 C.ar  164  HIS164      0.1986
     65  NE2       12.8310  -10.0490   21.1600 N.ar  164  HIS164     -0.2212
     66  N         20.9700  -12.4660   22.4230 N.3   181  ALA181     -0.1245
     67  CA        21.3290  -13.7520   21.8440 C.3   181  ALA181      0.1562
     68  C         22.6100  -13.5470   21.0590 C.2   181  ALA181      0.2260
     69  O         22.6580  -12.7710   20.0910 O.2   181  ALA181     -0.2867
     70  CB        20.2420  -14.2460   20.9480 C.3   181  ALA181      0.0290
     71  N         23.8990  -16.0690   19.4930 N.3   183  SER183     -0.1202
     72  CA        23.7810  -17.1140   18.4560 C.3   183  SER183      0.2020
     73  C         22.8590  -18.2690   18.8730 C.2   183  SER183      0.2618
     74  O         22.3010  -18.2760   19.9560 O.2   183  SER183     -0.2717
     75  CB        25.1760  -17.6440   18.0150 C.3   183  SER183      0.2103
     76  OG        25.7210  -18.7020   18.8080 O.3   183  SER183     -0.2182
     77  N         22.7080  -19.2140   17.9480 N.am  184  ARG184     -0.1979
     78  CA        21.9810  -20.4670   18.0820 C.3   184  ARG184      0.1597
     79  C         22.5310  -21.3520   19.2200 C.2   184  ARG184      0.2287
     80  O         21.8290  -22.1960   19.7440 O.2   184  ARG184     -0.2864
     81  CB        22.1360  -21.1270   16.6860 C.3   184  ARG184      0.0334
     82  CG        21.4080  -22.3590   16.4250 C.3   184  ARG184      0.0492
     83  CD        21.6430  -22.8460   14.9660 C.3   184  ARG184      0.2205
     84  NE        20.9070  -22.0360   13.9900 N.pl3 184  ARG184     -0.0865
     85  CZ        21.4520  -21.3010   13.0220 C.cat 184  ARG184      0.5346
     86  NH1       22.7610  -21.2290   12.8450 N.pl3 184  ARG184      0.1354
     87  NH2       20.6640  -20.6080   12.2180 N.pl3 184  ARG184      0.1354
     88  N         20.4120  -21.9480   22.5060 N.3   187  PHE187     -0.1241
     89  CA        19.3750  -22.9700   22.5680 C.3   187  PHE187      0.1605
     90  C         19.9450  -24.3700   22.8460 C.2   187  PHE187      0.2264
     91  O         19.2880  -25.1970   23.4780 O.2   187  PHE187     -0.2867
     92  CB        18.5750  -23.0380   21.2750 C.3   187  PHE187      0.0534
     93  CG        17.9700  -21.7430   20.8600 C.ar  187  PHE187     -0.0203
     94  CD1       17.0330  -21.1100   21.6630 C.ar  187  PHE187     -0.0042
     95  CD2       18.3240  -21.1510   19.6550 C.ar  187  PHE187     -0.0042
     96  CE1       16.4450  -19.9090   21.2700 C.ar  187  PHE187     -0.0003
     97  CE2       17.7470  -19.9480   19.2620 C.ar  187  PHE187     -0.0003
     98  CZ        16.7950  -19.3320   20.0740 C.ar  187  PHE187     -0.0000
@<TRIPOS>BOND
     1    87    85    1
     2    86    85    1
     3    85    84    2
     4    31    30    2
     5    30    29    1
     6    84    83    1
     7    32    29    1
     8    32    33    1
     9    29    28    1
    10     4     3    2
    11    83    82    1
    12     6     5    1
    13     3     2    1
    14    45    46    1
    15    45    51    1
    16    33    35   ar
    17    33    34   ar
    18    46    47    1
    19    46    49    1
    20    51    50    1
    21     5     2    1
    22     5     7    1
    23    50    49    1
    24    82    81    1
    25    35    37   ar
    26    48    47    2
    27     1     2    1
    28    81    78    1
    29    47    52   am
    30    34    36   ar
    31    37    36   ar
    32    52    53    1
    33    77    78    1
    34    77    73   am
    35    75    72    1
    36    75    76    1
    37    78    79    1
    38    72    73    1
    39    72    71    1
    40    53    54    1
    41    73    74    2
    42    19    18    1
    43    79    80    2
    44    97    95   ar
    45    97    98   ar
    46    18    16   ar
    47    18    17   ar
    48    95    93   ar
    49    16    14   ar
    50    17    15   ar
    51    54    55    2
    52    98    96   ar
    53    69    68    2
    54    15    13   ar
    55    14    13   ar
    56    13    12    1
    57    11    10    2
    58    93    92    1
    59    93    94   ar
    60    38    39    1
    61    70    67    1
    62    68    67    1
    63    65    64   ar
    64    65    63   ar
    65    96    94   ar
    66    92    89    1
    67    12     9    1
    68    64    62   ar
    69    43    42    1
    70     9    10    1
    71     9     8    1
    72    10    20   am
    73    67    66    1
    74    63    61   ar
    75    42    39    1
    76    42    44    1
    77    39    40    1
    78    62    61   ar
    79    88    89    1
    80    89    90    1
    81    90    91    2
    82    61    60    1
    83    40    41    2
    84    20    21    1
    85    21    24    1
    86    21    22    1
    87    56    57    1
    88    27    25   am
    89    24    25    1
    90    25    26    2
    91    57    60    1
    92    57    58    1
    93    22    23    2
    94    58    59    2
