@<TRIPOS>MOLECULE
tmp/1vmaB00.pdb
 96 88 0 0 0
SMALL
GASTEIGER

@<TRIPOS>ATOM
      1  N         30.2250    8.9480   19.5710 N.3   100  VAL100     -0.1231
      2  CA        30.7460   10.3010   19.6880 C.3   100  VAL100      0.1692
      3  C         32.2440   10.2570   19.9910 C.2   100  VAL100      0.2592
      4  O         32.7220    9.4140   20.7580 O.2   100  VAL100     -0.2718
      5  CB        30.0170   11.0720   20.8160 C.3   100  VAL100      0.0266
      6  CG1       30.5570   12.4210   20.9380 C.3   100  VAL100      0.0020
      7  CG2       28.5440   11.1450   20.5530 C.3   100  VAL100      0.0020
      8  N         32.9840   11.2110   19.4350 N.am  101  ASN101     -0.1960
      9  CA        34.3790   11.3600   19.8080 C.3   101  ASN101      0.1819
     10  C         34.4590   11.5870   21.3550 C.2   101  ASN101      0.2621
     11  O         33.5940   12.2520   21.9270 O.2   101  ASN101     -0.2715
     12  CB        35.0180   12.5100   19.0310 C.3   101  ASN101      0.1195
     13  CG        35.1400   12.2290   17.5160 C.2   101  ASN101      0.2630
     14  OD1       35.0050   11.0900   17.0470 O.2   101  ASN101     -0.2716
     15  ND2       35.4250   13.2690   16.7660 N.am  101  ASN101     -0.0877
     16  N         35.4510   11.0040   22.0210 N.am  102  GLY102     -0.1954
     17  CA        35.6610   11.2170   23.4510 C.3   102  GLY102      0.1869
     18  C         35.0960   10.1520   24.3620 C.2   102  GLY102      0.2309
     19  O         35.1610   10.2980   25.5850 O.2   102  GLY102     -0.2863
     20  N         35.8140    6.7570   24.1600 N.3   104  GLY104     -0.1210
     21  CA        36.6380    5.5610   24.1280 C.3   104  GLY104      0.1956
     22  C         36.5050    4.7260   22.8660 C.2   104  GLY104      0.2612
     23  O         36.7380    3.5330   22.9230 O.2   104  GLY104     -0.2717
     24  N         36.1090    5.3300   21.7330 N.am  105  LYS105     -0.1965
     25  CA        36.0200    4.6040   20.4420 C.3   105  LYS105      0.1728
     26  C         37.3340    4.0220   19.8770 C.2   105  LYS105      0.2617
     27  O         37.3630    2.8650   19.4470 O.2   105  LYS105     -0.2715
     28  CB        35.3780    5.4550   19.3380 C.3   105  LYS105      0.0311
     29  CG        33.8670    5.3450   19.0990 C.3   105  LYS105      0.0038
     30  CD        33.5400    5.7540   17.6500 C.3   105  LYS105      0.0206
     31  CE        33.7700    7.1650   17.3630 C.3   105  LYS105      0.1093
     32  NZ        33.1550    7.4950   16.0550 N.3   105  LYS105     -0.1314
     33  N         38.4120    4.7920   19.7810 N.am  106  THR106     -0.1937
     34  CA        39.5730    4.2280   19.0970 C.3   106  THR106      0.2028
     35  C         40.1420    3.1280   19.9780 C.2   106  THR106      0.2642
     36  O         40.5660    2.0580   19.4920 O.2   106  THR106     -0.2714
     37  CB        40.6080    5.3300   18.8010 C.3   106  THR106      0.1808
     38  OG1       39.9450    6.4090   18.1450 O.3   106  THR106     -0.2208
     39  CG2       41.6530    4.8790   17.7900 C.3   106  THR106      0.0379
     40  N         40.1750    3.3970   21.2800 N.am  107  THR107     -0.1950
     41  CA        40.7210    2.4300   22.2040 C.3   107  THR107      0.1897
     42  C         39.8670    1.1710   22.1640 C.2   107  THR107      0.2313
     43  O         40.4200    0.0680   22.0860 O.2   107  THR107     -0.2863
     44  CB        40.8530    3.0060   23.6230 C.3   107  THR107      0.1794
     45  OG1       39.7720    3.8830   23.9110 O.3   107  THR107     -0.2208
     46  CG2       42.0510    3.9420   23.6960 C.3   107  THR107      0.0378
     47  N         37.9420    7.1610   10.4620 N.3   129  ASP129     -0.1239
     48  CA        37.8150    8.4740   11.0820 C.3   129  ASP129      0.1674
     49  C         38.8880    9.3180   10.3660 C.2   129  ASP129      0.2266
     50  O         39.9840    9.5450   10.8780 O.2   129  ASP129     -0.2867
     51  CB        38.0610    8.3340   12.5840 C.3   129  ASP129      0.1410
     52  CG        37.7520    9.6000   13.3750 C.2   129  ASP129      0.3668
     53  OD1       37.3330   10.6520   12.8040 O.co2 129  ASP129     -0.2456
     54  OD2       37.9020    9.5970   14.6150 O.co2 129  ASP129     -0.2456
     55  N         40.7470   13.1530   11.1890 N.3   132  ARG132     -0.1245
     56  CA        41.4620   13.3810   12.4280 C.3   132  ARG132      0.1563
     57  C         42.7720   12.6390   12.3480 C.2   132  ARG132      0.2260
     58  O         42.8120   11.4190   12.4950 O.2   132  ARG132     -0.2867
     59  CB        40.6740   12.8850   13.6240 C.3   132  ARG132      0.0307
     60  CG        39.3770   13.6460   13.8980 C.3   132  ARG132      0.0489
     61  CD        38.5170   12.9050   14.9010 C.3   132  ARG132      0.2205
     62  NE        38.8850   13.1530   16.2930 N.pl3 132  ARG132     -0.0865
     63  CZ        38.6720   12.3090   17.2990 C.cat 132  ARG132      0.5346
     64  NH1       38.1440   11.1100   17.1000 N.pl3 132  ARG132      0.1354
     65  NH2       39.0150   12.6680   18.5220 N.pl3 132  ARG132      0.1354
     66  N         43.6570   10.4560   15.5670 N.3   135  ALA135     -0.1245
     67  CA        42.8840    9.2180   15.6750 C.3   135  ALA135      0.1562
     68  C         43.4670    8.1380   14.7570 C.2   135  ALA135      0.2260
     69  O         43.6290    6.9840   15.1820 O.2   135  ALA135     -0.2867
     70  CB        41.4390    9.4810   15.3700 C.3   135  ALA135      0.0290
     71  N         46.5900    6.9860   16.4100 N.3   138  GLN138     -0.1245
     72  CA        46.2630    6.1330   17.5420 C.3   138  GLN138      0.1566
     73  C         45.9180    4.7120   16.9910 C.2   138  GLN138      0.2260
     74  O         46.5460    3.7120   17.3630 O.2   138  GLN138     -0.2867
     75  CB        45.1420    6.7480   18.3840 C.3   138  GLN138      0.0367
     76  CG        45.1430    6.2630   19.8420 C.3   138  GLN138      0.0905
     77  CD        46.4650    6.5610   20.5800 C.2   138  GLN138      0.2608
     78  OE1       46.8820    7.7190   20.7110 O.2   138  GLN138     -0.2717
     79  NE2       47.1300    5.5060   21.0490 N.am  138  GLN138     -0.0878
     80  N         36.7640    1.8160   12.6050 N.3   181  ASP181     -0.1239
     81  CA        36.6560    2.9790   13.4380 C.3   181  ASP181      0.1674
     82  C         36.0550    4.0650   12.5660 C.2   181  ASP181      0.2266
     83  O         36.5030    4.2680   11.4310 O.2   181  ASP181     -0.2867
     84  CB        38.0860    3.3450   13.8620 C.3   181  ASP181      0.1410
     85  CG        38.1420    4.4130   14.9140 C.2   181  ASP181      0.3668
     86  OD1       37.0950    4.9210   15.3250 O.co2 181  ASP181     -0.2456
     87  OD2       39.2350    4.7930   15.3840 O.co2 181  ASP181     -0.2456
     88  N         33.9970    3.0980   30.4140 N.3   246  LYS246     -0.1245
     89  CA        34.2580    3.9310   31.5730 C.3   246  LYS246      0.1561
     90  C         33.2720    3.7230   32.7040 C.2   246  LYS246      0.2260
     91  O         32.9940    4.6270   33.4860 O.2   246  LYS246     -0.2867
     92  CB        34.3170    5.3860   31.1320 C.3   246  LYS246      0.0271
     93  CG        35.5130    5.6790   30.2570 C.3   246  LYS246      0.0035
     94  CD        35.3010    7.0240   29.5490 C.3   246  LYS246      0.0206
     95  CE        36.5850    7.7650   29.2850 C.3   246  LYS246      0.1093
     96  NZ        36.2670    9.0940   28.6520 N.3   246  LYS246     -0.1314
@<TRIPOS>BOND
     1    49    50    2
     2    49    48    1
     3    47    48    1
     4    48    51    1
     5    55    56    1
     6    83    82    2
     7    57    56    1
     8    57    58    2
     9    56    59    1
    10    82    81    1
    11    51    52    1
    12    80    81    1
    13    53    52   ar
    14    52    54   ar
    15    81    84    1
    16    59    60    1
    17    84    85    1
    18    60    61    1
    19    68    69    2
    20    68    67    1
    21    61    62    1
    22    85    86   ar
    23    85    87   ar
    24    70    67    1
    25    66    67    1
    26    32    31    1
    27    62    63    2
    28    71    72    1
    29    15    13   am
    30    73    74    2
    31    73    72    1
    32    14    13    2
    33    64    63    1
    34    63    65    1
    35    31    30    1
    36    13    12    1
    37    72    75    1
    38    30    29    1
    39    39    37    1
    40    38    37    1
    41    75    76    1
    42    37    34    1
    43    12     9    1
    44    34    33    1
    45    34    35    1
    46    29    28    1
    47    28    25    1
    48     8     9    1
    49     8     3   am
    50    27    26    2
    51    36    35    2
    52     1     2    1
    53     2     3    1
    54     2     5    1
    55    33    26   am
    56     9    10    1
    57    76    77    1
    58    26    25    1
    59    35    40   am
    60     3     4    2
    61    25    24    1
    62     7     5    1
    63    77    78    2
    64    77    79   am
    65     5     6    1
    66    40    41    1
    67    10    11    2
    68    10    16   am
    69    24    22   am
    70    16    17    1
    71    43    42    2
    72    42    41    1
    73    41    44    1
    74    22    23    2
    75    22    21    1
    76    17    18    1
    77    44    46    1
    78    44    45    1
    79    21    20    1
    80    18    19    2
    81    96    95    1
    82    95    94    1
    83    94    93    1
    84    93    92    1
    85    88    89    1
    86    92    89    1
    87    89    90    1
    88    90    91    2
