@<TRIPOS>MOLECULE
tmp/1vmfC00.pdb
 91 87 0 0 0
SMALL
GASTEIGER

@<TRIPOS>ATOM
      1  N         58.5500    6.1960   26.9330 N.3    42  LEU42      -0.1231
      2  CA        57.8820    5.4020   27.9940 C.3    42  LEU42       0.1693
      3  C         57.2790    6.2730   29.1070 C.2    42  LEU42       0.2592
      4  O         56.8780    5.7630   30.1630 O.2    42  LEU42      -0.2718
      5  CB        58.8180    4.3500   28.6190 C.3    42  LEU42       0.0284
      6  CG        59.2780    3.3080   27.6090 C.3    42  LEU42       0.0019
      7  CD1       60.2470    2.3450   28.2820 C.3    42  LEU42       0.0001
      8  CD2       58.1210    2.5290   27.0420 C.3    42  LEU42       0.0001
      9  N         57.2610    7.5860   28.8840 N.am   43  HIS43      -0.1962
     10  CA        56.9320    8.5690   29.9060 C.3    43  HIS43       0.1787
     11  C         55.7360    9.4230   29.5390 C.2    43  HIS43       0.2621
     12  O         55.4580    9.6730   28.3630 O.2    43  HIS43      -0.2715
     13  CB        58.1420    9.4650   30.1490 C.3    43  HIS43       0.0785
     14  CG        59.3710    8.6820   30.4750 C.ar   43  HIS43       0.0821
     15  ND1       59.5690    8.1000   31.7080 N.ar   43  HIS43      -0.2267
     16  CD2       60.4660    8.3820   29.7280 C.ar   43  HIS43       0.1154
     17  CE1       60.7280    7.4500   31.6920 C.ar   43  HIS43       0.1986
     18  NE2       61.2920    7.6120   30.5080 N.ar   43  HIS43      -0.2212
     19  N         55.0410    9.8910   30.5760 N.am   44  THR44      -0.1937
     20  CA        53.8760   10.7560   30.4400 C.3    44  THR44       0.2028
     21  C         54.2680   12.2180   30.5090 C.2    44  THR44       0.2642
     22  O         53.4490   13.1100   30.3260 O.2    44  THR44      -0.2714
     23  CB        52.8160   10.4300   31.5170 C.3    44  THR44       0.1808
     24  OG1       53.3170   10.7220   32.8050 O.3    44  THR44      -0.2208
     25  CG2       52.4300    8.9910   31.4760 C.3    44  THR44       0.0379
     26  N         55.5560   12.4580   30.7520 N.am   45  THR45      -0.1950
     27  CA        56.1210   13.7940   30.9010 C.3    45  THR45       0.1897
     28  C         57.3020   14.0800   29.9750 C.2    45  THR45       0.2313
     29  O         58.0080   15.0910   30.1410 O.2    45  THR45      -0.2863
     30  CB        56.5630   14.0330   32.3560 C.3    45  THR45       0.1794
     31  OG1       57.4570   12.9860   32.7420 O.3    45  THR45      -0.2208
     32  CG2       55.3640   14.0520   33.2910 C.3    45  THR45       0.0378
     33  N         46.5400   18.7540   40.0310 N.3    79  HIS79      -0.1241
     34  CA        47.5440   17.7090   40.1180 C.3    79  HIS79       0.1621
     35  C         48.6960   18.2220   40.9920 C.2    79  HIS79       0.2264
     36  O         49.5080   19.0580   40.5870 O.2    79  HIS79      -0.2867
     37  CB        47.9890   17.2950   38.7120 C.3    79  HIS79       0.0745
     38  CG        49.1560   16.3630   38.6760 C.ar   79  HIS79       0.0817
     39  ND1       49.1590   15.1410   39.3190 N.ar   79  HIS79      -0.2268
     40  CD2       50.3350   16.4500   38.0150 C.ar   79  HIS79       0.1154
     41  CE1       50.2950   14.5190   39.0560 C.ar   79  HIS79       0.1986
     42  NE2       51.0350   15.2960   38.2790 N.ar   79  HIS79      -0.2212
     43  N         51.4500   17.1800   42.3220 N.3    81  GLU81      -0.1245
     44  CA        52.8740   17.0100   42.0250 C.3    81  GLU81       0.1567
     45  C         53.4860   18.2190   41.2930 C.2    81  GLU81       0.2260
     46  O         54.6850   18.4680   41.3900 O.2    81  GLU81      -0.2867
     47  CB        53.1010   15.7530   41.2080 C.3    81  GLU81       0.0388
     48  CG        54.5430   15.5390   40.8210 C.3    81  GLU81       0.1160
     49  CD        54.7560   14.2990   40.0040 C.2    81  GLU81       0.3649
     50  OE1       53.7400   13.6880   39.5830 O.co2  81  GLU81      -0.2457
     51  OE2       55.9440   13.9470   39.7710 O.co2  81  GLU81      -0.2457
     52  N         53.5550   19.1130   37.9480 N.3    83  ASN83      -0.1240
     53  CA        54.1170   18.9920   36.5850 C.3    83  ASN83       0.1653
     54  C         53.0270   18.7930   35.5130 C.2    83  ASN83       0.2266
     55  O         53.2920   18.2770   34.4430 O.2    83  ASN83      -0.2867
     56  CB        55.1700   17.8740   36.5250 C.3    83  ASN83       0.1155
     57  CG        54.6000   16.5210   36.8720 C.2    83  ASN83       0.2627
     58  OD1       53.4070   16.3980   37.1880 O.2    83  ASN83      -0.2716
     59  ND2       55.4350   15.4950   36.8210 N.am   83  ASN83      -0.0877
     60  N         52.7940   17.1510   31.3160 N.3    87  HIS87      -0.1241
     61  CA        51.7920   16.2310   30.7760 C.3    87  HIS87       0.1621
     62  C         51.1400   16.8120   29.5330 C.2    87  HIS87       0.2264
     63  O         50.9430   16.1070   28.5640 O.2    87  HIS87      -0.2867
     64  CB        50.7350   15.8970   31.8190 C.3    87  HIS87       0.0745
     65  CG        51.2700   15.0730   32.9480 C.ar   87  HIS87       0.0817
     66  ND1       51.4620   13.7060   32.8430 N.ar   87  HIS87      -0.2268
     67  CD2       51.6300   15.4110   34.2100 C.ar   87  HIS87       0.1154
     68  CE1       51.9390   13.2490   33.9930 C.ar   87  HIS87       0.1986
     69  NE2       52.0600   14.2640   34.8310 N.ar   87  HIS87      -0.2212
     70  N         66.3760   14.4290   34.7260 N.3   123  ARG123     -0.1245
     71  CA        66.2180   13.0820   35.2380 C.3   123  ARG123      0.1563
     72  C         67.1990   12.1090   34.6010 C.2   123  ARG123      0.2260
     73  O         67.5630   12.2490   33.4380 O.2   123  ARG123     -0.2867
     74  CB        64.8030   12.5870   35.0060 C.3   123  ARG123      0.0307
     75  CG        63.7800   13.3650   35.8250 C.3   123  ARG123      0.0489
     76  CD        62.4070   12.9170   35.5760 C.3   123  ARG123      0.2205
     77  NE        61.4140   13.7220   36.2860 N.pl3 123  ARG123     -0.0865
     78  CZ        61.0460   13.5550   37.5540 C.cat 123  ARG123      0.5346
     79  NH1       61.5630   12.6030   38.3140 N.pl3 123  ARG123      0.1354
     80  NH2       60.1140   14.3360   38.0710 N.pl3 123  ARG123      0.1354
     81  N         65.7340    8.3520   31.7430 N.3   126  ARG126     -0.1245
     82  CA        64.6180    8.5120   30.8230 C.3   126  ARG126      0.1563
     83  C         64.8250    7.4870   29.7230 C.2   126  ARG126      0.2260
     84  O         65.9640    7.0510   29.4690 O.2   126  ARG126     -0.2867
     85  CB        64.6010    9.9230   30.2640 C.3   126  ARG126      0.0307
     86  CG        64.3590   10.9640   31.3350 C.3   126  ARG126      0.0489
     87  CD        63.0030   10.7810   32.0430 C.3   126  ARG126      0.2205
     88  NE        62.1500   11.9680   31.9500 N.pl3 126  ARG126     -0.0865
     89  CZ        60.8770   12.0350   32.3420 C.cat 126  ARG126      0.5346
     90  NH1       60.2720   10.9870   32.8680 N.pl3 126  ARG126      0.1354
     91  NH2       60.1970   13.1500   32.2080 N.pl3 126  ARG126      0.1354
@<TRIPOS>BOND
     1     1     2    1
     2     8     6    1
     3     6     7    1
     4     6     5    1
     5     2     5    1
     6     2     3    1
     7    12    11    2
     8    63    62    2
     9     9     3   am
    10     9    10    1
    11     3     4    2
    12    84    83    2
    13    62    61    1
    14    11    10    1
    15    11    19   am
    16    83    82    1
    17    16    14   ar
    18    16    18   ar
    19    10    13    1
    20    28    29    2
    21    28    27    1
    22    13    14    1
    23    85    82    1
    24    85    86    1
    25    22    21    2
    26    20    21    1
    27    20    19    1
    28    20    23    1
    29    14    15   ar
    30    18    17   ar
    31    21    26   am
    32    26    27    1
    33    61    60    1
    34    61    64    1
    35    82    81    1
    36    27    30    1
    37    86    87    1
    38    25    23    1
    39    23    24    1
    40    17    15   ar
    41    64    65    1
    42    88    87    1
    43    88    89    2
    44    91    89    1
    45    89    90    1
    46    30    31    1
    47    30    32    1
    48    66    65   ar
    49    66    68   ar
    50    65    67   ar
    51    73    72    2
    52    68    69   ar
    53    67    69   ar
    54    55    54    2
    55    72    71    1
    56    70    71    1
    57    74    71    1
    58    74    75    1
    59    54    53    1
    60    76    75    1
    61    76    77    1
    62    77    78    2
    63    56    53    1
    64    56    57    1
    65    53    52    1
    66    59    57   am
    67    57    58    2
    68    78    80    1
    69    78    79    1
    70    40    42   ar
    71    40    38   ar
    72    42    41   ar
    73    38    37    1
    74    38    39   ar
    75    37    34    1
    76    41    39   ar
    77    50    49   ar
    78    51    49   ar
    79    49    48    1
    80    33    34    1
    81    34    35    1
    82    36    35    2
    83    48    47    1
    84    47    44    1
    85    45    46    2
    86    45    44    1
    87    44    43    1
