@<TRIPOS>MOLECULE
tmp/1vmkB00.pdb
 81 75 0 0 0
SMALL
GASTEIGER

@<TRIPOS>ATOM
      1  N         22.3060  -65.4930   49.1390 N.3   101  ALA101     -0.1245
      2  CA        23.1040  -64.9160   50.2260 C.3   101  ALA101      0.1562
      3  C         23.8400  -66.0200   50.9890 C.2   101  ALA101      0.2260
      4  O         23.2400  -67.0010   51.3970 O.2   101  ALA101     -0.2867
      5  CB        22.2200  -64.2000   51.1880 C.3   101  ALA101      0.0290
      6  N         27.2170  -67.2200   53.8820 N.3   103  GLY103     -0.1225
      7  CA        28.2950  -67.0120   54.7850 C.3   103  GLY103      0.1811
      8  C         29.5610  -67.5710   54.2310 C.2   103  GLY103      0.2280
      9  O         29.5790  -68.6960   53.7420 O.2   103  GLY103     -0.2866
     10  N         21.9620  -75.6830   53.6100 N.3   170  VAL170     -0.1245
     11  CA        21.5210  -76.2020   54.9120 C.3   170  VAL170      0.1561
     12  C         20.1280  -75.6440   55.1630 C.2   170  VAL170      0.2260
     13  O         19.7560  -74.6550   54.5620 O.2   170  VAL170     -0.2867
     14  CB        22.4520  -75.7620   56.1000 C.3   170  VAL170      0.0252
     15  CG1       23.8770  -76.2840   55.9140 C.3   170  VAL170      0.0019
     16  CG2       22.5200  -74.2460   56.3300 C.3   170  VAL170      0.0019
     17  N         21.5130  -69.7430   62.4760 N.3   175  TYR175     -0.1227
     18  CA        22.8100  -69.7960   61.8290 C.3   175  TYR175      0.1736
     19  C         23.6370  -70.9290   62.4340 C.2   175  TYR175      0.2595
     20  O         23.2080  -71.5300   63.4010 O.2   175  TYR175     -0.2718
     21  CB        23.4760  -68.4580   62.0120 C.3   175  TYR175      0.0548
     22  CG        22.8570  -67.4040   61.1390 C.ar  175  TYR175     -0.0200
     23  CD1       22.8380  -67.5590   59.7920 C.ar  175  TYR175     -0.0009
     24  CD2       22.3620  -66.2120   61.6830 C.ar  175  TYR175     -0.0009
     25  CE1       22.3100  -66.5950   58.9420 C.ar  175  TYR175      0.0417
     26  CE2       21.8160  -65.2210   60.8600 C.ar  175  TYR175      0.0417
     27  CZ        21.7950  -65.4290   59.4660 C.ar  175  TYR175      0.1957
     28  OH        21.2790  -64.5110   58.5590 O.3   175  TYR175     -0.2866
     29  N         24.8110  -71.1920   61.8600 N.am  176  GLU176     -0.1979
     30  CA        25.6120  -72.3480   62.2560 C.3   176  GLU176      0.1602
     31  C         26.5050  -71.9920   63.4600 C.2   176  GLU176      0.2287
     32  O         26.7640  -70.8190   63.7710 O.2   176  GLU176     -0.2864
     33  CB        26.5350  -72.8320   61.1510 C.3   176  GLU176      0.0415
     34  CG        25.9240  -73.1900   59.8840 C.3   176  GLU176      0.1163
     35  CD        25.3010  -71.9640   59.1710 C.2   176  GLU176      0.3649
     36  OE1       25.8650  -70.7970   59.1800 O.co2 176  GLU176     -0.2457
     37  OE2       24.1910  -72.1680   58.6510 O.co2 176  GLU176     -0.2457
     38  N         28.1590  -71.1230   52.8480 N.3   192  VAL192     -0.1231
     39  CA        26.9810  -71.7550   53.4330 C.3   192  VAL192      0.1692
     40  C         25.7520  -70.8500   53.3530 C.2   192  VAL192      0.2593
     41  O         25.8080  -69.6540   53.7070 O.2   192  VAL192     -0.2718
     42  CB        27.2270  -72.1730   54.9070 C.3   192  VAL192      0.0266
     43  CG1       27.7180  -70.9810   55.7880 C.3   192  VAL192      0.0020
     44  CG2       25.9940  -72.8340   55.5120 C.3   192  VAL192      0.0020
     45  N         24.6560  -71.4400   52.8900 N.am  193  GLY193     -0.1942
     46  CA        23.4060  -70.7530   52.8150 C.3   193  GLY193      0.2014
     47  C         22.2410  -71.6960   52.9130 C.2   193  GLY193      0.2638
     48  O         22.4140  -72.8840   52.9730 O.2   193  GLY193     -0.2714
     49  N         21.0370  -71.1380   52.8500 N.am  194  MET194     -0.1976
     50  CA        19.8340  -71.8400   53.1730 C.3   194  MET194      0.1605
     51  C         18.8710  -72.0210   51.9920 C.2   194  MET194      0.2287
     52  O         17.7290  -72.4230   52.1640 O.2   194  MET194     -0.2864
     53  CB        19.1350  -71.0200   54.2800 C.3   194  MET194      0.0413
     54  CG        19.7960  -71.0260   55.5850 C.3   194  MET194      0.0598
     55  SD        18.9420  -69.8440   56.7320 S.3   194  MET194     -0.1393
     56  CE        20.3420  -69.5610   57.8440 C.3   194  MET194      0.0692
     57  N         27.4510  -62.2990   52.5510 N.3   217  THR217     -0.1203
     58  CA        26.8420  -61.3540   53.4600 C.3   217  THR217      0.1994
     59  C         27.6440  -61.2320   54.7760 C.2   217  THR217      0.2617
     60  O         27.4740  -60.2660   55.4750 O.2   217  THR217     -0.2717
     61  CB        25.4180  -61.7980   53.8110 C.3   217  THR217      0.1784
     62  OG1       25.4920  -63.0830   54.4370 O.3   217  THR217     -0.2211
     63  CG2       24.5460  -61.8820   52.5560 C.3   217  THR217      0.0376
     64  N         28.4780  -62.2190   55.0950 N.am  218  ASN218     -0.1974
     65  CA        29.2030  -62.3030   56.3490 C.3   218  ASN218      0.1688
     66  C         30.1860  -63.4500   56.3140 C.2   218  ASN218      0.2292
     67  O         30.0200  -64.3200   55.5400 O.2   218  ASN218     -0.2864
     68  CB        28.2540  -62.5080   57.5480 C.3   218  ASN218      0.1181
     69  CG        27.3410  -63.7260   57.4020 C.2   218  ASN218      0.2629
     70  OD1       26.2940  -63.6580   56.7640 O.2   218  ASN218     -0.2716
     71  ND2       27.7290  -64.8380   58.0160 N.am  218  ASN218     -0.0877
     72  N         31.2730  -66.8010   58.0470 N.3   220  ALA220     -0.1231
     73  CA        30.5700  -67.7850   58.8210 C.3   220  ALA220      0.1694
     74  C         31.0440  -67.8830   60.2790 C.2   220  ALA220      0.2591
     75  O         32.1630  -67.3860   60.6730 O.2   220  ALA220     -0.2718
     76  CB        30.6320  -69.1260   58.1170 C.3   220  ALA220      0.0304
     77  N         30.2060  -68.5050   61.1190 N.am  221  ALA221     -0.1980
     78  CA        30.5100  -68.5850   62.5810 C.3   221  ALA221      0.1597
     79  C         31.9360  -69.0730   62.9090 C.2   221  ALA221      0.2287
     80  O         32.4000  -70.1020   62.4450 O.2   221  ALA221     -0.2864
     81  CB        29.4580  -69.4490   63.3300 C.3   221  ALA221      0.0319
@<TRIPOS>BOND
     1     1     2    1
     2     2     3    1
     3     2     5    1
     4     3     4    2
     5    51    52    2
     6    51    50    1
     7    57    58    1
     8    63    61    1
     9    46    45    1
    10    46    47    1
    11    38    39    1
    12    49    47   am
    13    49    50    1
    14    45    40   am
    15    47    48    2
    16    50    53    1
    17    40    39    1
    18    40    41    2
    19    39    42    1
    20    58    61    1
    21    58    59    1
    22    10    11    1
    23     9     8    2
    24    61    62    1
    25     6     7    1
    26     8     7    1
    27    53    54    1
    28    13    12    2
    29    59    64   am
    30    59    60    2
    31    42    44    1
    32    42    43    1
    33    11    12    1
    34    11    14    1
    35    64    65    1
    36    67    66    2
    37    54    55    1
    38    15    14    1
    39    14    16    1
    40    66    65    1
    41    65    68    1
    42    55    56    1
    43    70    69    2
    44    69    68    1
    45    69    71   am
    46    72    73    1
    47    76    73    1
    48    28    27    1
    49    37    35   ar
    50    73    74    1
    51    25    27   ar
    52    25    23   ar
    53    35    36   ar
    54    35    34    1
    55    27    26   ar
    56    23    22   ar
    57    34    33    1
    58    74    75    2
    59    74    77   am
    60    26    24   ar
    61    77    78    1
    62    22    24   ar
    63    22    21    1
    64    33    30    1
    65    18    21    1
    66    18    19    1
    67    18    17    1
    68    29    30    1
    69    29    19   am
    70    30    31    1
    71    19    20    2
    72    80    79    2
    73    78    79    1
    74    78    81    1
    75    31    32    2
