@<TRIPOS>MOLECULE
tmp/1votA00.pdb
 164 162 0 0 0
SMALL
GASTEIGER

@<TRIPOS>ATOM
      1  N         -3.7780   68.8500   69.5880 N.3    69  ASP69      -0.1239
      2  CA        -2.7480   68.8190   70.6120 C.3    69  ASP69       0.1674
      3  C         -3.0620   69.7950   71.7170 C.2    69  ASP69       0.2266
      4  O         -2.9570   71.0040   71.5400 O.2    69  ASP69      -0.2867
      5  CB        -1.3830   69.1770   70.0450 C.3    69  ASP69       0.1410
      6  CG        -0.2990   69.1840   71.0990 C.2    69  ASP69       0.3668
      7  OD1       -0.5540   68.7130   72.2160 O.co2  69  ASP69      -0.2456
      8  OD2        0.8300   69.6300   70.8170 O.co2  69  ASP69      -0.2456
      9  N          2.8340   75.1510   69.8230 N.3    78  SER78      -0.1217
     10  CA         2.2360   73.8500   69.6060 C.3    78  SER78       0.1889
     11  C          0.8580   74.0410   69.0300 C.2    78  SER78       0.2288
     12  O          0.3410   73.1970   68.2870 O.2    78  SER78      -0.2866
     13  CB         2.1560   73.0580   70.9190 C.3    78  SER78       0.2089
     14  OG         1.0870   73.5070   71.7310 O.3    78  SER78      -0.2183
     15  N          0.0440   74.4480   65.1220 N.3    81  TRP81      -0.1241
     16  CA        -0.1590   73.2470   64.3260 C.3    81  TRP81       0.1605
     17  C         -1.5380   72.6580   64.4770 C.2    81  TRP81       0.2264
     18  O         -1.8600   71.6760   63.8250 O.2    81  TRP81      -0.2867
     19  CB         0.8170   72.1570   64.7370 C.3    81  TRP81       0.0550
     20  CG         2.2340   72.5470   64.6990 C.ar   81  TRP81       0.0003
     21  CD1        3.0000   72.8710   65.7570 C.ar   81  TRP81       0.0946
     22  CD2        3.0880   72.5900   63.5530 C.ar   81  TRP81       0.0152
     23  NE1        4.2940   73.1100   65.3590 N.ar   81  TRP81      -0.2442
     24  CE2        4.3740   72.9460   64.0060 C.ar   81  TRP81       0.0810
     25  CE3        2.8980   72.3630   62.1900 C.ar   81  TRP81       0.0012
     26  CZ2        5.4560   73.0800   63.1520 C.ar   81  TRP81       0.0191
     27  CZ3        3.9770   72.4950   61.3390 C.ar   81  TRP81       0.0001
     28  CH2        5.2410   72.8510   61.8250 C.ar   81  TRP81       0.0015
     29  N          0.5410   68.1080   53.7170 N.3   113  TYR113     -0.1227
     30  CA         0.8540   68.2530   55.1270 C.3   113  TYR113      0.1736
     31  C          1.2010   66.9210   55.7710 C.2   113  TYR113      0.2596
     32  O          0.7390   65.8740   55.3120 O.2   113  TYR113     -0.2718
     33  CB        -0.2770   68.9690   55.8760 C.3   113  TYR113      0.0548
     34  CG        -1.6510   68.3640   55.8160 C.ar  113  TYR113     -0.0200
     35  CD1       -1.9290   67.1370   56.3920 C.ar  113  TYR113     -0.0009
     36  CD2       -2.6980   69.0550   55.2510 C.ar  113  TYR113     -0.0009
     37  CE1       -3.2150   66.6200   56.4020 C.ar  113  TYR113      0.0417
     38  CE2       -3.9800   68.5480   55.2600 C.ar  113  TYR113      0.0417
     39  CZ        -4.2250   67.3410   55.8310 C.ar  113  TYR113      0.1957
     40  OH        -5.4930   66.8380   55.8010 O.3   113  TYR113     -0.2866
     41  N          1.9820   66.9340   56.8520 N.am  114  GLY114     -0.1942
     42  CA         2.3340   65.6540   57.4430 C.3   114  GLY114      0.2014
     43  C          2.3980   65.3310   58.9260 C.2   114  GLY114      0.2639
     44  O          3.4150   64.8160   59.3990 O.2   114  GLY114     -0.2714
     45  N          1.3060   65.4760   59.6470 N.am  115  GLY115     -0.1939
     46  CA         1.3740   65.1480   61.0570 C.3   115  GLY115      0.2014
     47  C          1.2210   63.6810   61.3940 C.2   115  GLY115      0.2639
     48  O          0.1540   63.2740   61.8040 O.2   115  GLY115     -0.2714
     49  N          2.2550   62.8770   61.2060 N.am  116  GLY116     -0.1954
     50  CA         2.1690   61.4660   61.5400 C.3   116  GLY116      0.1869
     51  C          0.9450   60.7030   61.0670 C.2   116  GLY116      0.2309
     52  O          0.6210   59.6220   61.5870 O.2   116  GLY116     -0.2863
     53  N         -1.9810   61.3350   61.5630 N.3   118  TYR118     -0.1227
     54  CA        -3.1290   61.4890   62.4570 C.3   118  TYR118      0.1736
     55  C         -3.6030   62.9280   62.5200 C.2   118  TYR118      0.2596
     56  O         -4.6540   63.2050   63.0840 O.2   118  TYR118     -0.2718
     57  CB        -2.8540   60.9540   63.8820 C.3   118  TYR118      0.0548
     58  CG        -1.8610   61.7500   64.6860 C.ar  118  TYR118     -0.0200
     59  CD1       -2.2600   62.8420   65.4330 C.ar  118  TYR118     -0.0009
     60  CD2       -0.5140   61.4370   64.6560 C.ar  118  TYR118     -0.0009
     61  CE1       -1.3370   63.6160   66.1160 C.ar  118  TYR118      0.0417
     62  CE2        0.4090   62.1990   65.3320 C.ar  118  TYR118      0.0417
     63  CZ        -0.0100   63.2910   66.0610 C.ar  118  TYR118      0.1957
     64  OH         0.9200   64.0840   66.6850 O.3   118  TYR118     -0.2866
     65  N         -2.8460   63.8500   61.9500 N.am  119  SER119     -0.1938
     66  CA        -3.2600   65.2360   61.9770 C.3   119  SER119      0.2055
     67  C         -2.6970   66.0040   60.8130 C.2   119  SER119      0.2643
     68  O         -1.8670   65.4960   60.0630 O.2   119  SER119     -0.2714
     69  CB        -2.8000   65.8930   63.2750 C.3   119  SER119      0.2130
     70  OG        -1.3840   65.9120   63.3750 O.3   119  SER119     -0.2179
     71  N         -3.0890   67.2620   60.7240 N.am  120  GLY120     -0.1954
     72  CA        -2.6100   68.1230   59.6640 C.3   120  GLY120      0.1869
     73  C         -3.7730   68.9230   59.1390 C.2   120  GLY120      0.2309
     74  O         -4.9300   68.4710   59.1870 O.2   120  GLY120     -0.2863
     75  N         -3.0930   75.9770   58.0290 N.3   124  LEU124     -0.1245
     76  CA        -2.1730   76.5120   59.0190 C.3   124  LEU124      0.1561
     77  C         -1.4890   77.7560   58.5400 C.2   124  LEU124      0.2260
     78  O         -1.2130   77.9080   57.3600 O.2   124  LEU124     -0.2867
     79  CB        -1.1050   75.4960   59.3790 C.3   124  LEU124      0.0270
     80  CG        -1.6270   74.1560   59.8440 C.3   124  LEU124      0.0019
     81  CD1       -0.5060   73.4150   60.5110 C.3   124  LEU124      0.0001
     82  CD2       -2.7720   74.3670   60.7930 C.3   124  LEU124      0.0001
     83  N          1.5720   77.1910   56.5490 N.3   127  TYR127     -0.1241
     84  CA         1.3360   76.5820   55.2440 C.3   127  TYR127      0.1605
     85  C          0.7280   77.5710   54.2460 C.2   127  TYR127      0.2264
     86  O          0.1770   77.1680   53.2440 O.2   127  TYR127     -0.2867
     87  CB         0.3970   75.3870   55.3650 C.3   127  TYR127      0.0534
     88  CG         0.9160   74.2130   56.1640 C.ar  127  TYR127     -0.0201
     89  CD1        2.2680   74.0190   56.3580 C.ar  127  TYR127     -0.0009
     90  CD2        0.0400   73.2800   56.6990 C.ar  127  TYR127     -0.0009
     91  CE1        2.7320   72.9190   57.0540 C.ar  127  TYR127      0.0417
     92  CE2        0.4990   72.1880   57.3870 C.ar  127  TYR127      0.0417
     93  CZ         1.8390   72.0150   57.5600 C.ar  127  TYR127      0.1957
     94  OH         2.3060   70.9030   58.1890 O.3   127  TYR127     -0.2866
     95  N          6.1820   67.3730   54.1940 N.3   196  GLU196     -0.1231
     96  CA         7.0220   67.2230   55.3740 C.3   196  GLU196      0.1699
     97  C          6.5210   66.1410   56.2840 C.2   196  GLU196      0.2592
     98  O          5.3240   66.0110   56.5090 O.2   196  GLU196     -0.2718
     99  CB         7.0410   68.5450   56.1240 C.3   196  GLU196      0.0402
    100  CG         8.0930   68.6550   57.2230 C.3   196  GLU196      0.1161
    101  CD         7.5900   68.2330   58.5860 C.2   196  GLU196      0.3649
    102  OE1        6.3690   68.2130   58.8010 O.co2 196  GLU196     -0.2457
    103  OE2        8.4260   67.9300   59.4440 O.co2 196  GLU196     -0.2457
    104  N          7.4260   65.3310   56.7910 N.am  197  SER197     -0.1952
    105  CA         7.0630   64.2780   57.7370 C.3   197  SER197      0.1924
    106  C          6.1580   63.2260   57.1400 C.2   197  SER197      0.2314
    107  O          6.6060   62.4420   56.3270 O.2   197  SER197     -0.2863
    108  CB         6.4530   64.8850   59.0130 C.3   197  SER197      0.2116
    109  OG         6.3720   63.9300   60.0590 O.3   197  SER197     -0.2180
    110  N          2.2190   55.9720   65.3480 N.3   287  PHE287     -0.1241
    111  CA         0.9070   56.5510   65.2560 C.3   287  PHE287      0.1605
    112  C          0.0070   55.4070   64.9190 C.2   287  PHE287      0.2264
    113  O          0.4510   54.3930   64.4010 O.2   287  PHE287     -0.2867
    114  CB         0.9340   57.6640   64.2150 C.3   287  PHE287      0.0534
    115  CG         2.1820   58.5520   64.3010 C.ar  287  PHE287     -0.0203
    116  CD1        2.3050   59.5230   65.2740 C.ar  287  PHE287     -0.0042
    117  CD2        3.2290   58.4040   63.3980 C.ar  287  PHE287     -0.0042
    118  CE1        3.4330   60.3250   65.3430 C.ar  287  PHE287     -0.0003
    119  CE2        4.3660   59.2130   63.4690 C.ar  287  PHE287     -0.0003
    120  CZ         4.4660   60.1710   64.4370 C.ar  287  PHE287     -0.0000
    121  N         10.9920   66.8620   69.5550 N.3   327  PHE327     -0.1227
    122  CA         9.5500   66.9130   69.6960 C.3   327  PHE327      0.1736
    123  C          8.8850   65.6600   70.2220 C.2   327  PHE327      0.2595
    124  O          7.9350   65.7510   70.9950 O.2   327  PHE327     -0.2718
    125  CB         8.8910   67.3360   68.3910 C.3   327  PHE327      0.0547
    126  CG         7.4290   67.6050   68.5220 C.ar  327  PHE327     -0.0202
    127  CD1        6.9720   68.8750   68.8260 C.ar  327  PHE327     -0.0042
    128  CD2        6.5010   66.5940   68.3150 C.ar  327  PHE327     -0.0042
    129  CE1        5.6010   69.1320   68.9200 C.ar  327  PHE327     -0.0003
    130  CE2        5.1320   66.8360   68.4060 C.ar  327  PHE327     -0.0003
    131  CZ         4.6800   68.1080   68.7070 C.ar  327  PHE327     -0.0000
    132  N          9.3720   64.4910   69.8440 N.am  328  PHE328     -0.1976
    133  CA         8.7310   63.2610   70.2890 C.3   328  PHE328      0.1639
    134  C          9.1420   62.8240   71.6790 C.2   328  PHE328      0.2290
    135  O          8.3730   62.1820   72.3790 O.2   328  PHE328     -0.2864
    136  CB         8.9190   62.1810   69.2410 C.3   328  PHE328      0.0560
    137  CG         8.3970   62.5940   67.8970 C.ar  328  PHE328     -0.0200
    138  CD1        7.0640   62.4200   67.5780 C.ar  328  PHE328     -0.0042
    139  CD2        9.2160   63.2850   67.0010 C.ar  328  PHE328     -0.0042
    140  CE1        6.5590   62.9290   66.4160 C.ar  328  PHE328     -0.0003
    141  CE2        8.7140   63.7930   65.8420 C.ar  328  PHE328     -0.0003
    142  CZ         7.3810   63.6190   65.5480 C.ar  328  PHE328     -0.0000
    143  N         11.7590   69.0250   64.3210 N.3   437  HIS437     -0.1241
    144  CA        10.9610   68.3980   63.3090 C.3   437  HIS437      0.1621
    145  C          9.9100   69.4170   63.0180 C.2   437  HIS437      0.2264
    146  O          9.3500   69.9910   63.9380 O.2   437  HIS437     -0.2867
    147  CB        10.2740   67.1900   63.8940 C.3   437  HIS437      0.0745
    148  CG         9.6460   66.2950   62.8850 C.ar  437  HIS437      0.0817
    149  ND1       10.3850   65.5810   61.9690 N.ar  437  HIS437     -0.2268
    150  CD2        8.3620   65.9100   62.7110 C.ar  437  HIS437      0.1154
    151  CE1        9.5860   64.7850   61.2820 C.ar  437  HIS437      0.1986
    152  NE2        8.3540   64.9680   61.7120 N.ar  437  HIS437     -0.2212
    153  N         10.4040   72.4090   61.6380 N.3   439  TYR439     -0.1241
    154  CA        10.8030   73.7950   61.6410 C.3   439  TYR439      0.1605
    155  C         11.5300   74.3750   60.4440 C.2   439  TYR439      0.2264
    156  O         11.9900   75.5130   60.4690 O.2   439  TYR439     -0.2867
    157  CB        11.3950   74.1790   62.9920 C.3   439  TYR439      0.0534
    158  CG        10.2720   74.3440   63.9810 C.ar  439  TYR439     -0.0201
    159  CD1        9.6600   73.2420   64.5500 C.ar  439  TYR439     -0.0009
    160  CD2        9.7300   75.5810   64.2170 C.ar  439  TYR439     -0.0009
    161  CE1        8.5330   73.3780   65.3210 C.ar  439  TYR439      0.0417
    162  CE2        8.6140   75.7260   64.9780 C.ar  439  TYR439      0.0417
    163  CZ         8.0180   74.6250   65.5230 C.ar  439  TYR439      0.1957
    164  OH         6.9020   74.7900   66.2810 O.3   439  TYR439     -0.2866
@<TRIPOS>BOND
     1    86    85    2
     2    29    30    1
     3    95    96    1
     4    85    84    1
     5    30    31    1
     6    30    33    1
     7    84    87    1
     8    84    83    1
     9    36    38   ar
    10    36    34   ar
    11    38    39   ar
    12    32    31    2
    13    87    88    1
    14    96    99    1
    15    96    97    1
    16    31    41   am
    17    40    39    1
    18    34    33    1
    19    34    35   ar
    20    39    37   ar
    21    99   100    1
    22    88    89   ar
    23    88    90   ar
    24    97    98    2
    25    97   104   am
    26   107   106    2
    27    89    91   ar
    28    35    37   ar
    29    90    92   ar
    30   104   105    1
    31    41    42    1
    32    91    93   ar
    33   106   105    1
    34   100   101    1
    35    78    77    2
    36    92    93   ar
    37    42    43    1
    38    93    94    1
    39   105   108    1
    40    75    76    1
    41    77    76    1
    42   101   102   ar
    43   101   103   ar
    44    43    44    2
    45    43    45   am
    46   108   109    1
    47    76    79    1
    48    73    74    2
    49    73    72    1
    50    79    80    1
    51    45    46    1
    52    72    71    1
    53    80    81    1
    54    80    82    1
    55    68    67    2
    56   155   156    2
    57   155   154    1
    58    71    67   am
    59    67    66    1
    60    46    47    1
    61    51    50    1
    62    51    52    2
    63    49    47   am
    64    49    50    1
    65   151   152   ar
    66   151   149   ar
    67    27    28   ar
    68    27    25   ar
    69    47    48    2
    70    53    54    1
    71   153   154    1
    72   154   157    1
    73   152   150   ar
    74    28    26   ar
    75    65    66    1
    76    65    55   am
    77   149   148   ar
    78    66    69    1
    79    25    22   ar
    80    54    55    1
    81    54    57    1
    82    55    56    2
    83   150   148   ar
    84   148   147    1
    85   157   158    1
    86   145   144    1
    87   145   146    2
    88    26    24   ar
    89    69    70    1
    90   144   147    1
    91   144   143    1
    92   117   119   ar
    93   117   115   ar
    94   119   120   ar
    95    22    24   ar
    96    22    20   ar
    97    18    17    2
    98    57    58    1
    99   158   160   ar
   100   158   159   ar
   101    24    23   ar
   102   114   115    1
   103   114   111    1
   104   160   162   ar
   105   115   116   ar
   106    16    17    1
   107    16    19    1
   108    16    15    1
   109   113   112    2
   110   120   118   ar
   111   159   161   ar
   112    60    58   ar
   113    60    62   ar
   114    58    59   ar
   115    20    19    1
   116    20    21   ar
   117   112   111    1
   118   162   163   ar
   119   111   110    1
   120   116   118   ar
   121   161   163   ar
   122    62    63   ar
   123    23    21   ar
   124    59    61   ar
   125   163   164    1
   126   142   141   ar
   127   142   140   ar
   128   141   139   ar
   129    63    61   ar
   130    63    64    1
   131   140   138   ar
   132   139   137   ar
   133   138   137   ar
   134   137   136    1
   135    12    11    2
   136   128   130   ar
   137   128   126   ar
   138   125   126    1
   139   125   122    1
   140   130   131   ar
   141   126   127   ar
   142   131   129   ar
   143   127   129   ar
   144    11    10    1
   145   136   133    1
   146   121   122    1
   147     1     2    1
   148    10     9    1
   149    10    13    1
   150   122   123    1
   151   132   123   am
   152   132   133    1
   153     5     2    1
   154     5     6    1
   155   123   124    2
   156   133   134    1
   157     2     3    1
   158     8     6   ar
   159    13    14    1
   160     6     7   ar
   161     4     3    2
   162   134   135    2
