@<TRIPOS>MOLECULE
tmp/1vp4A00.pdb
 125 117 0 0 0
SMALL
GASTEIGER

@<TRIPOS>ATOM
      1  N        -23.4910  109.9580   12.7460 N.3    44  GLY44      -0.1225
      2  CA       -23.7490  111.0590   11.8540 C.3    44  GLY44       0.1811
      3  C        -22.5560  111.9670   11.6850 C.2    44  GLY44       0.2280
      4  O        -22.7040  113.1600   11.4360 O.2    44  GLY44      -0.2866
      5  N        -21.3310  126.4300   14.0400 N.3   109  GLY109     -0.1210
      6  CA       -21.9150  125.3910   13.2260 C.3   109  GLY109      0.1956
      7  C        -22.9690  125.9870   12.3460 C.2   109  GLY109      0.2613
      8  O        -23.4510  127.1010   12.6060 O.2   109  GLY109     -0.2717
      9  N        -23.3600  125.2460   11.3080 N.am  110  SER110     -0.1938
     10  CA       -24.5910  125.5810   10.5930 C.3   110  SER110      0.2055
     11  C        -25.8110  125.4330   11.5080 C.2   110  SER110      0.2642
     12  O        -26.8450  126.0450   11.2710 O.2   110  SER110     -0.2714
     13  CB       -24.7710  124.6770    9.3770 C.3   110  SER110      0.2130
     14  OG       -23.7240  124.9070    8.4990 O.3   110  SER110     -0.2179
     15  N        -25.6840  124.6990   12.5960 N.am  111  GLN111     -0.1976
     16  CA       -26.7610  124.7030   13.5620 C.3   111  GLN111      0.1601
     17  C        -27.1650  126.1010   14.0130 C.2   111  GLN111      0.2287
     18  O        -28.3630  126.4170   13.9990 O.2   111  GLN111     -0.2864
     19  CB       -26.5090  123.7810   14.7410 C.3   111  GLN111      0.0394
     20  CG       -27.7350  123.6200   15.6220 C.3   111  GLN111      0.0908
     21  CD       -28.8530  122.7750   15.0080 C.2   111  GLN111      0.2608
     22  OE1      -28.6290  121.9480   14.1130 O.2   111  GLN111     -0.2717
     23  NE2      -30.0720  122.9930   15.4920 N.am  111  GLN111     -0.0878
     24  N        -29.2310  127.8210   11.4290 N.3   114  LEU114     -0.1245
     25  CA       -30.5990  127.3260   11.4070 C.3   114  LEU114      0.1561
     26  C        -31.4050  127.9330   12.5360 C.2   114  LEU114      0.2260
     27  O        -32.5510  128.3690   12.3430 O.2   114  LEU114     -0.2867
     28  CB       -30.6180  125.7820   11.5000 C.3   114  LEU114      0.0270
     29  CG       -30.0250  125.0260   10.3240 C.3   114  LEU114      0.0019
     30  CD1      -29.9070  123.6040   10.6100 C.3   114  LEU114      0.0001
     31  CD2      -30.8250  125.2680    9.0850 C.3   114  LEU114      0.0001
     32  N        -33.6240  116.7120    7.8650 N.3   135  TYR135     -0.1241
     33  CA       -32.5890  116.8180    8.9040 C.3   135  TYR135      0.1605
     34  C        -33.0880  117.2170   10.2770 C.2   135  TYR135      0.2264
     35  O        -33.7630  118.2180   10.4390 O.2   135  TYR135     -0.2867
     36  CB       -31.5470  117.8300    8.4560 C.3   135  TYR135      0.0534
     37  CG       -30.4910  118.1000    9.4940 C.ar  135  TYR135     -0.0201
     38  CD1      -29.8140  117.0580   10.1010 C.ar  135  TYR135     -0.0009
     39  CD2      -30.1870  119.4080    9.8880 C.ar  135  TYR135     -0.0009
     40  CE1      -28.8420  117.3060   11.0720 C.ar  135  TYR135      0.0417
     41  CE2      -29.2210  119.6670   10.8170 C.ar  135  TYR135      0.0417
     42  CZ       -28.5470  118.6060   11.4110 C.ar  135  TYR135      0.1957
     43  OH       -27.5970  118.8560   12.3690 O.3   135  TYR135     -0.2866
     44  N        -31.6400  120.2590    1.6070 N.3   185  VAL185     -0.1245
     45  CA       -30.2730  119.7690    1.6160 C.3   185  VAL185      0.1561
     46  C        -30.0530  119.1560    0.2370 C.2   185  VAL185      0.2260
     47  O        -30.5380  118.0630   -0.0450 O.2   185  VAL185     -0.2867
     48  CB       -30.0660  118.7100    2.6840 C.3   185  VAL185      0.0252
     49  CG1      -28.6330  118.2390    2.6400 C.3   185  VAL185      0.0019
     50  CG2      -30.4070  119.2470    4.0690 C.3   185  VAL185      0.0019
     51  N        -29.2030  114.4350    4.4270 N.3   190  ASN190     -0.1240
     52  CA       -29.2230  113.7870    5.7130 C.3   190  ASN190      0.1653
     53  C        -30.6910  113.8050    6.0860 C.2   190  ASN190      0.2266
     54  O        -31.2620  114.8730    6.2590 O.2   190  ASN190     -0.2867
     55  CB       -28.3530  114.5460    6.7010 C.3   190  ASN190      0.1155
     56  CG       -28.4340  114.0000    8.1340 C.2   190  ASN190      0.2627
     57  OD1      -29.1080  113.0110    8.4320 O.2   190  ASN190     -0.2716
     58  ND2      -27.7420  114.6660    9.0210 N.am  190  ASN190     -0.0877
     59  N        -28.8620  124.0650    2.6810 N.3   218  ASP218     -0.1239
     60  CA       -27.9210  123.5180    3.6190 C.3   218  ASP218      0.1674
     61  C        -27.0740  122.4850    2.8890 C.2   218  ASP218      0.2266
     62  O        -27.5930  121.5410    2.3190 O.2   218  ASP218     -0.2867
     63  CB       -28.7080  122.9680    4.8230 C.3   218  ASP218      0.1410
     64  CG       -27.8460  122.6390    6.0190 C.2   218  ASP218      0.3668
     65  OD1      -26.6050  122.7260    5.9330 O.co2 218  ASP218     -0.2456
     66  OD2      -28.4130  122.2870    7.0880 O.co2 218  ASP218     -0.2456
     67  N        -23.7400  120.5560    3.8540 N.3   220  PRO220     -0.2102
     68  CA       -22.5650  120.1190    4.5910 C.3   220  PRO220      0.1504
     69  C        -21.6250  119.1900    3.8200 C.2   220  PRO220      0.2575
     70  O        -20.4470  119.0670    4.1790 O.2   220  PRO220     -0.2718
     71  CB       -23.1680  119.3550    5.7800 C.3   220  PRO220      0.0282
     72  CG       -24.6260  119.5600    5.7190 C.3   220  PRO220      0.0208
     73  CD       -24.9670  119.9460    4.3810 C.3   220  PRO220      0.0893
     74  N        -22.1260  118.5450    2.7770 N.am  221  TYR221     -0.1977
     75  CA       -21.5010  117.3260    2.2360 C.3   221  TYR221      0.1639
     76  C        -20.9970  117.4590    0.8230 C.2   221  TYR221      0.2290
     77  O        -20.4580  116.5000    0.2640 O.2   221  TYR221     -0.2864
     78  CB       -22.5000  116.1120    2.3180 C.3   221  TYR221      0.0560
     79  CG       -23.1120  115.8560    3.6640 C.ar  221  TYR221     -0.0198
     80  CD1      -22.3500  115.3360    4.7000 C.ar  221  TYR221     -0.0009
     81  CD2      -24.4580  116.1400    3.9250 C.ar  221  TYR221     -0.0009
     82  CE1      -22.8540  115.1560    5.9160 C.ar  221  TYR221      0.0417
     83  CE2      -24.9830  115.9640    5.1830 C.ar  221  TYR221      0.0417
     84  CZ       -24.1620  115.4380    6.1850 C.ar  221  TYR221      0.1957
     85  OH       -24.6190  115.2310    7.4660 O.3   221  TYR221     -0.2866
     86  N        -20.4620  124.0160    6.0840 N.3   248  THR248     -0.1218
     87  CA       -19.8840  123.8060    7.4020 C.3   248  THR248      0.1862
     88  C        -18.4910  123.1800    7.2460 C.2   248  THR248      0.2287
     89  O        -18.1650  122.5780    6.2040 O.2   248  THR248     -0.2866
     90  CB       -20.8330  122.9760    8.3340 C.3   248  THR248      0.1770
     91  OG1      -20.1680  122.6680    9.5750 O.3   248  THR248     -0.2211
     92  CG2      -21.3070  121.7190    7.6790 C.3   248  THR248      0.0375
     93  N        -17.7360  121.0270    9.6010 N.3   250  SER250     -0.1202
     94  CA       -17.9300  119.8400   10.4250 C.3   250  SER250      0.2020
     95  C        -17.5970  118.5350    9.7500 C.2   250  SER250      0.2618
     96  O        -16.9710  117.6580   10.3620 O.2   250  SER250     -0.2717
     97  CB       -19.3490  119.8040   10.9520 C.3   250  SER250      0.2103
     98  OG       -19.5030  120.8100   11.9180 O.3   250  SER250     -0.2182
     99  N        -17.9610  118.4040    8.4840 N.am  251  LYS251     -0.1979
    100  CA       -17.8300  117.1280    7.8430 C.3   251  LYS251      0.1596
    101  C        -16.5460  116.9770    7.0290 C.2   251  LYS251      0.2287
    102  O        -16.1430  115.8540    6.7580 O.2   251  LYS251     -0.2864
    103  CB       -19.0830  116.8020    6.9920 C.3   251  LYS251      0.0298
    104  CG       -20.3940  116.9070    7.7530 C.3   251  LYS251      0.0038
    105  CD       -20.3640  116.2020    9.0720 C.3   251  LYS251      0.0206
    106  CE       -21.7250  115.9610    9.6710 C.3   251  LYS251      0.1093
    107  NZ       -22.5210  117.1900    9.6280 N.3   251  LYS251     -0.1314
    108  N        -15.6950  118.7480   13.2880 N.3   255  PRO255     -0.2116
    109  CA       -16.8550  119.2340   14.0340 C.3   255  PRO255      0.1372
    110  C        -16.4990  120.1290   15.1740 C.2   255  PRO255      0.2244
    111  O        -17.1980  121.0960   15.3810 O.2   255  PRO255     -0.2868
    112  CB       -17.5100  117.9570   14.5660 C.3   255  PRO255      0.0268
    113  CG       -17.1050  116.9330   13.6090 C.3   255  PRO255      0.0207
    114  CD       -15.7230  117.2820   13.1730 C.3   255  PRO255      0.0892
    115  N        -16.6590  123.9530   15.2610 N.3   258  ARG258     -0.1245
    116  CA       -17.9810  124.5480   15.2280 C.3   258  ARG258      0.1563
    117  C        -18.0200  125.7870   14.3220 C.2   258  ARG258      0.2260
    118  O        -18.3220  126.8710   14.7960 O.2   258  ARG258     -0.2867
    119  CB       -18.5060  124.9350   16.6360 C.3   258  ARG258      0.0307
    120  CG       -18.4710  123.8780   17.7510 C.3   258  ARG258      0.0489
    121  CD       -19.1860  122.5990   17.3950 C.3   258  ARG258      0.2205
    122  NE       -20.5940  122.8160   17.0890 N.pl3 258  ARG258     -0.0865
    123  CZ       -21.1820  122.5280   15.9380 C.cat 258  ARG258      0.5346
    124  NH1      -20.4910  122.0140   14.9080 N.pl3 258  ARG258      0.1354
    125  NH2      -22.4600  122.7990   15.7830 N.pl3 258  ARG258      0.1354
@<TRIPOS>BOND
     1    47    46    2
     2    46    45    1
     3    77    76    2
     4    76    75    1
     5    44    45    1
     6    45    48    1
     7    75    78    1
     8    75    74    1
     9    78    79    1
    10    62    61    2
    11    49    48    1
    12    59    60    1
    13    48    50    1
    14    74    69   am
    15    61    60    1
    16    60    63    1
    17    79    81   ar
    18    79    80   ar
    19    69    70    2
    20    69    68    1
    21    67    73    1
    22    67    68    1
    23    81    83   ar
    24    73    72    1
    25    51    52    1
    26    68    71    1
    27    80    82   ar
    28    63    64    1
    29    83    84   ar
    30    52    53    1
    31    52    55    1
    32    72    71    1
    33    82    84   ar
    34    65    64   ar
    35    64    66   ar
    36    86    87    1
    37    53    54    2
    38    84    85    1
    39    89    88    2
    40    55    56    1
    41   102   101    2
    42   103   104    1
    43   103   100    1
    44   101   100    1
    45    88    87    1
    46    87    90    1
    47    92    90    1
    48   104   105    1
    49   100    99    1
    50    32    33    1
    51    56    57    2
    52    56    58   am
    53    90    91    1
    54    36    33    1
    55    36    37    1
    56    99    95   am
    57    14    13    1
    58    33    34    1
    59   105   106    1
    60    31    29    1
    61    13    10    1
    62    37    39   ar
    63    37    38   ar
    64    93    94    1
    65   107   106    1
    66    95    96    2
    67    95    94    1
    68    39    41   ar
    69    38    40   ar
    70    34    35    2
    71    29    30    1
    72    29    28    1
    73    94    97    1
    74    10     9    1
    75    10    11    1
    76    41    42   ar
    77    97    98    1
    78    40    42   ar
    79    12    11    2
    80     9     7   am
    81    25    24    1
    82    25    28    1
    83    25    26    1
    84    42    43    1
    85     4     3    2
    86    11    15   am
    87     3     2    1
    88     2     1    1
    89    27    26    2
    90     7     8    2
    91     7     6    1
    92    15    16    1
    93   114   108    1
    94   114   113    1
    95     6     5    1
    96   108   109    1
    97    16    17    1
    98    16    19    1
    99   113   112    1
   100    18    17    2
   101   109   112    1
   102   109   110    1
   103    22    21    2
   104   117   118    2
   105   117   116    1
   106    19    20    1
   107   124   123    1
   108    21    23   am
   109    21    20    1
   110   110   111    2
   111   116   115    1
   112   116   119    1
   113   125   123    1
   114   123   122    2
   115   119   120    1
   116   122   121    1
   117   121   120    1
