@<TRIPOS>MOLECULE
tmp/1vp5A00.pdb
 244 239 0 0 0
SMALL
GASTEIGER

@<TRIPOS>ATOM
      1  N         58.9720   46.2630    1.9160 N.3    19  GLY19      -0.1210
      2  CA        59.6350   46.7280    3.1320 C.3    19  GLY19       0.1956
      3  C         59.5000   45.7080    4.2440 C.2    19  GLY19       0.2612
      4  O         58.4630   45.0250    4.3070 O.2    19  GLY19      -0.2717
      5  N         60.5140   45.6080    5.1260 N.am   20  VAL20      -0.1965
      6  CA        60.4890   44.5970    6.2050 C.3    20  VAL20       0.1727
      7  C         60.6250   45.1210    7.6480 C.2    20  VAL20       0.2616
      8  O         60.8580   44.3380    8.5770 O.2    20  VAL20      -0.2715
      9  CB        61.5240   43.4090    5.9790 C.3    20  VAL20       0.0290
     10  CG1       61.3110   42.7320    4.6080 C.3    20  VAL20       0.0023
     11  CG2       62.9530   43.8750    6.1620 C.3    20  VAL20       0.0023
     12  N         60.3980   46.4280    7.8440 N.am   21  PHE21      -0.1960
     13  CA        60.3190   47.0210    9.1840 C.3    21  PHE21       0.1771
     14  C         59.1540   46.4250    9.9900 C.2    21  PHE21       0.2619
     15  O         58.0140   46.3600    9.5140 O.2    21  PHE21      -0.2715
     16  CB        60.2010   48.5450    9.0720 C.3    21  PHE21       0.0574
     17  CG        60.0760   49.2720   10.4060 C.ar   21  PHE21      -0.0200
     18  CD1       61.0330   49.1140   11.3910 C.ar   21  PHE21      -0.0042
     19  CD2       58.9930   50.1410   10.6610 C.ar   21  PHE21      -0.0042
     20  CE1       60.9330   49.8300   12.6170 C.ar   21  PHE21      -0.0003
     21  CE2       58.8640   50.8220   11.8970 C.ar   21  PHE21      -0.0003
     22  CZ        59.8370   50.6760   12.8640 C.ar   21  PHE21      -0.0000
     23  N         59.4720   45.9970   11.2120 N.am   22  GLN22      -0.1977
     24  CA        58.5230   45.3550   12.1630 C.3    22  GLN22       0.1601
     25  C         58.0730   43.9580   11.8050 C.2    22  GLN22       0.2287
     26  O         57.1480   43.4080   12.4240 O.2    22  GLN22      -0.2864
     27  CB        57.3220   46.2580   12.4420 C.3    22  GLN22       0.0394
     28  CG        57.7650   47.7260   12.6660 C.3    22  GLN22       0.0908
     29  CD        56.7480   48.5600   13.4070 C.2    22  GLN22       0.2608
     30  OE1       56.6170   48.4500   14.6470 O.2    22  GLN22      -0.2717
     31  NE2       56.0410   49.4360   12.6600 N.am   22  GLN22      -0.0878
     32  N         63.5810   46.1250    0.9060 N.3    44  ASP44      -0.1239
     33  CA        64.1360   47.1210    1.7780 C.3    44  ASP44       0.1674
     34  C         64.2630   46.6080    3.1990 C.2    44  ASP44       0.2266
     35  O         63.2480   46.2690    3.8540 O.2    44  ASP44      -0.2867
     36  CB        63.3000   48.3880    1.7950 C.3    44  ASP44       0.1410
     37  CG        63.9860   49.4950    2.5520 C.2    44  ASP44       0.3668
     38  OD1       64.8170   50.2050    1.9260 O.co2  44  ASP44      -0.2456
     39  OD2       63.7790   49.6760    3.7850 O.co2  44  ASP44      -0.2456
     40  N         66.7640   46.8290   11.7050 N.3    49  TYR49      -0.1241
     41  CA        65.5800   45.9230   11.7630 C.3    49  TYR49       0.1605
     42  C         65.9280   44.5340   12.3020 C.2    49  TYR49       0.2264
     43  O         64.9900   43.7440   12.5890 O.2    49  TYR49      -0.2867
     44  CB        64.8490   45.7830   10.4130 C.3    49  TYR49       0.0534
     45  CG        64.5580   47.0870    9.6910 C.ar   49  TYR49      -0.0201
     46  CD1       64.5510   48.3210   10.3760 C.ar   49  TYR49      -0.0009
     47  CD2       64.2630   47.0860    8.3030 C.ar   49  TYR49      -0.0009
     48  CE1       64.2690   49.5150    9.6900 C.ar   49  TYR49       0.0417
     49  CE2       63.9710   48.2880    7.6180 C.ar   49  TYR49       0.0417
     50  CZ        63.9930   49.5000    8.3270 C.ar   49  TYR49       0.1957
     51  OH        63.7500   50.6920    7.6900 O.3    49  TYR49      -0.2866
     52  N         70.8770   49.5820    5.2140 N.3    78  LYS78      -0.1245
     53  CA        71.0720   50.9000    5.7820 C.3    78  LYS78       0.1561
     54  C         72.0720   50.8670    6.8660 C.2    78  LYS78       0.2260
     55  O         72.1350   49.9100    7.5880 O.2    78  LYS78      -0.2867
     56  CB        69.7410   51.4770    6.3290 C.3    78  LYS78       0.0271
     57  CG        68.5630   51.4220    5.3500 C.3    78  LYS78       0.0035
     58  CD        67.3780   52.2490    5.8310 C.3    78  LYS78       0.0206
     59  CE        66.1070   51.9050    5.0750 C.3    78  LYS78       0.1093
     60  NZ        65.5000   50.5810    5.4530 N.3    78  LYS78      -0.1314
     61  N         70.9910   55.8590    7.2700 N.3   111  HIS111     -0.1226
     62  CA        69.6400   55.6530    7.7830 C.3   111  HIS111      0.1752
     63  C         69.0690   56.9370    8.4110 C.2   111  HIS111      0.2595
     64  O         67.8720   57.2270    8.2650 O.2   111  HIS111     -0.2718
     65  CB        69.6760   54.4870    8.7760 C.3   111  HIS111      0.0759
     66  CG        68.3480   53.8480    9.0300 C.ar  111  HIS111      0.0818
     67  ND1       68.2410   52.5490    9.4680 N.ar  111  HIS111     -0.2268
     68  CD2       67.0780   54.3360    8.9820 C.ar  111  HIS111      0.1154
     69  CE1       66.9610   52.2530    9.6650 C.ar  111  HIS111      0.1986
     70  NE2       66.2390   53.3200    9.3680 N.ar  111  HIS111     -0.2212
     71  N         69.9240   57.7000    9.0930 N.am  112  GLN112     -0.1979
     72  CA        69.5200   58.9040    9.8180 C.3   112  GLN112      0.1601
     73  C         70.5100   60.0680    9.5800 C.2   112  GLN112      0.2287
     74  O         71.6660   59.8480    9.2570 O.2   112  GLN112     -0.2864
     75  CB        69.3880   58.6070   11.3030 C.3   112  GLN112      0.0394
     76  CG        68.3460   57.4780   11.6960 C.3   112  GLN112      0.0908
     77  CD        66.8900   57.9050   11.5090 C.2   112  GLN112      0.2608
     78  OE1       66.5720   59.1000   11.3700 O.2   112  GLN112     -0.2717
     79  NE2       66.0060   56.9320   11.4740 N.am  112  GLN112     -0.0878
     80  N         68.8190   58.7240    3.8810 N.3   139  SER139     -0.1202
     81  CA        67.4500   58.6110    4.3750 C.3   139  SER139      0.2020
     82  C         67.2110   59.7120    5.4170 C.2   139  SER139      0.2618
     83  O         68.1080   60.0460    6.2180 O.2   139  SER139     -0.2717
     84  CB        67.2100   57.2270    4.9870 C.3   139  SER139      0.2103
     85  OG        65.8190   56.9740    5.1710 O.3   139  SER139     -0.2182
     86  N         66.0260   60.3210    5.3280 N.am  140  ASN140     -0.1974
     87  CA        65.5410   61.3100    6.2750 C.3   140  ASN140      0.1688
     88  C         66.3320   62.6170    6.2590 C.2   140  ASN140      0.2292
     89  O         66.4110   63.3010    7.2720 O.2   140  ASN140     -0.2864
     90  CB        65.4430   60.7020    7.6920 C.3   140  ASN140      0.1181
     91  CG        64.5360   59.5000    7.7330 C.2   140  ASN140      0.2629
     92  OD1       63.3760   59.5780    7.3370 O.2   140  ASN140     -0.2716
     93  ND2       65.0980   58.3420    8.1390 N.am  140  ASN140     -0.0877
     94  N         65.4680   58.3300    0.9470 N.3   161  GLN161     -0.1245
     95  CA        64.3210   57.6180    1.4780 C.3   161  GLN161      0.1566
     96  C         63.7100   58.3840    2.6610 C.2   161  GLN161      0.2260
     97  O         64.3420   58.6060    3.7110 O.2   161  GLN161     -0.2867
     98  CB        64.7520   56.2050    1.8850 C.3   161  GLN161      0.0367
     99  CG        63.5800   55.2910    2.0380 C.3   161  GLN161      0.0905
    100  CD        63.9240   53.9510    2.6070 C.2   161  GLN161      0.2608
    101  OE1       63.5270   53.6200    3.7340 O.2   161  GLN161     -0.2717
    102  NE2       64.6540   53.1520    1.8200 N.am  161  GLN161     -0.0878
    103  N         59.2650   55.8790    2.2570 N.3   187  TRP187     -0.1227
    104  CA        58.9180   55.0040    3.3970 C.3   187  TRP187      0.1737
    105  C         57.5850   55.3990    4.0220 C.2   187  TRP187      0.2596
    106  O         57.0450   56.5110    3.7740 O.2   187  TRP187     -0.2718
    107  CB        60.0590   54.8730    4.4030 C.3   187  TRP187      0.0564
    108  CG        60.4780   56.0080    5.2670 C.ar  187  TRP187      0.0003
    109  CD1       61.6620   56.7010    5.1660 C.ar  187  TRP187      0.0946
    110  CD2       59.8300   56.5140    6.4540 C.ar  187  TRP187      0.0152
    111  NE1       61.7720   57.6080    6.1860 N.ar  187  TRP187     -0.2442
    112  CE2       60.6700   57.5120    6.9980 C.ar  187  TRP187      0.0810
    113  CE3       58.6340   56.2050    7.1320 C.ar  187  TRP187      0.0012
    114  CZ2       60.3540   58.2050    8.1640 C.ar  187  TRP187      0.0191
    115  CZ3       58.3040   56.9140    8.2830 C.ar  187  TRP187      0.0001
    116  CH2       59.1780   57.8770    8.7980 C.ar  187  TRP187      0.0015
    117  N         56.9910   54.4550    4.7480 N.am  188  GLY188     -0.1943
    118  CA        55.6430   54.6860    5.3200 C.3   188  GLY188      0.1998
    119  C         54.6130   55.1890    4.3100 C.2   188  GLY188      0.2481
    120  O         53.8980   56.1570    4.5800 O.2   188  GLY188     -0.2729
    121  N         54.5160   54.5470    3.1410 N.am  189  PRO189     -0.2715
    122  CA        53.6160   55.0250    2.0740 C.3   189  PRO189      0.1536
    123  C         52.1660   55.0050    2.4960 C.2   189  PRO189      0.2598
    124  O         51.3530   55.7360    1.9250 O.2   189  PRO189     -0.2715
    125  CB        53.8760   54.0340    0.9380 C.3   189  PRO189      0.0310
    126  CG        54.3710   52.7950    1.6310 C.3   189  PRO189      0.0237
    127  CD        55.2570   53.3420    2.7080 C.3   189  PRO189      0.0939
    128  N         51.8440   54.1540    3.4820 N.am  190  PHE190     -0.1974
    129  CA        50.5100   54.1010    4.0660 C.3   190  PHE190      0.1639
    130  C         50.4630   54.7830    5.3900 C.2   190  PHE190      0.2290
    131  O         49.5460   54.5270    6.1490 O.2   190  PHE190     -0.2864
    132  CB        50.0540   52.6450    4.3030 C.3   190  PHE190      0.0560
    133  CG        50.0730   51.7730    3.0640 C.ar  190  PHE190     -0.0200
    134  CD1       49.5990   52.2500    1.8480 C.ar  190  PHE190     -0.0042
    135  CD2       50.5660   50.4730    3.1330 C.ar  190  PHE190     -0.0042
    136  CE1       49.5630   51.4310    0.7250 C.ar  190  PHE190     -0.0003
    137  CE2       50.5840   49.6630    2.0160 C.ar  190  PHE190     -0.0003
    138  CZ        50.0530   50.1370    0.8020 C.ar  190  PHE190     -0.0000
    139  N         51.9530   53.8510    7.9010 N.3   192  GLU192     -0.1231
    140  CA        51.7700   52.7200    8.7900 C.3   192  GLU192      0.1699
    141  C         50.3100   52.5030    9.2310 C.2   192  GLU192      0.2592
    142  O         50.0610   51.9580   10.2650 O.2   192  GLU192     -0.2718
    143  CB        52.6790   52.8430   10.0030 C.3   192  GLU192      0.0402
    144  CG        54.1500   52.7770    9.6250 C.3   192  GLU192      0.1161
    145  CD        55.1040   52.5230   10.7960 C.2   192  GLU192      0.3649
    146  OE1       56.3000   52.2340   10.5260 O.co2 192  GLU192     -0.2457
    147  OE2       54.6980   52.6710   11.9680 O.co2 192  GLU192     -0.2457
    148  N         49.3530   52.8920    8.4060 N.am  193  GLY193     -0.1957
    149  CA        47.9500   52.8300    8.7680 C.3   193  GLY193      0.1869
    150  C         47.4290   53.9050    9.6990 C.2   193  GLY193      0.2309
    151  O         46.2330   53.8800   10.0490 O.2   193  GLY193     -0.2863
    152  N         43.1270   53.9110    5.4690 N.3   198  PHE198     -0.1241
    153  CA        42.5210   52.9400    4.5300 C.3   198  PHE198      0.1605
    154  C         41.0370   53.1990    4.3880 C.2   198  PHE198      0.2264
    155  O         40.4070   52.7560    3.4150 O.2   198  PHE198     -0.2867
    156  CB        42.8440   51.4890    4.8970 C.3   198  PHE198      0.0534
    157  CG        44.3330   51.1820    4.8730 C.ar  198  PHE198     -0.0203
    158  CD1       45.0250   51.1750    3.6690 C.ar  198  PHE198     -0.0042
    159  CD2       45.0350   50.9190    6.0520 C.ar  198  PHE198     -0.0042
    160  CE1       46.3990   50.9310    3.6420 C.ar  198  PHE198     -0.0003
    161  CE2       46.4020   50.6890    6.0280 C.ar  198  PHE198     -0.0003
    162  CZ        47.0800   50.6760    4.8120 C.ar  198  PHE198     -0.0000
    163  N         44.7400   51.2730   -0.6650 N.3   215  ALA215     -0.1245
    164  CA        46.1480   50.9330   -0.6720 C.3   215  ALA215      0.1562
    165  C         46.6680   50.9920   -2.1100 C.2   215  ALA215      0.2260
    166  O         47.5890   51.7290   -2.3970 O.2   215  ALA215     -0.2867
    167  CB        46.3640   49.5340   -0.0640 C.3   215  ALA215      0.0290
    168  N         57.8320   51.5230   -1.0000 N.3   230  ILE230     -0.1231
    169  CA        58.1930   50.2310   -0.4070 C.3   230  ILE230      0.1678
    170  C         57.2150   49.7790    0.6800 C.2   230  ILE230      0.2434
    171  O         57.6180   49.5810    1.8390 O.2   230  ILE230     -0.2733
    172  CB        59.6780   50.2400    0.1020 C.3   230  ILE230      0.0265
    173  CG1       59.9900   51.4790    0.9530 C.3   230  ILE230      0.0019
    174  CG2       60.6500   50.1680   -1.0790 C.3   230  ILE230      0.0020
    175  CD1       61.3050   51.3960    1.7380 C.3   230  ILE230      0.0001
    176  N         55.9470   49.5310    0.2990 N.am  231  PRO231     -0.2718
    177  CA        54.9640   49.0710    1.2620 C.3   231  PRO231      0.1535
    178  C         55.3640   47.7400    1.9360 C.2   231  PRO231      0.2598
    179  O         55.9580   46.8660    1.3060 O.2   231  PRO231     -0.2715
    180  CB        53.7050   48.8620    0.4010 C.3   231  PRO231      0.0310
    181  CG        54.2340   48.5730   -0.9540 C.3   231  PRO231      0.0237
    182  CD        55.3570   49.5360   -1.0650 C.3   231  PRO231      0.0939
    183  N         54.9820   47.6140    3.1950 N.am  232  LYS232     -0.1964
    184  CA        55.2070   46.4310    3.9790 C.3   232  LYS232      0.1728
    185  C         53.8580   45.7740    4.3150 C.2   232  LYS232      0.2617
    186  O         52.9160   46.4410    4.7650 O.2   232  LYS232     -0.2715
    187  CB        55.9820   46.8040    5.2710 C.3   232  LYS232      0.0311
    188  CG        56.0890   45.7130    6.3490 C.3   232  LYS232      0.0038
    189  CD        54.8750   45.7280    7.3100 C.3   232  LYS232      0.0206
    190  CE        55.0170   44.7380    8.4760 C.3   232  LYS232      0.1093
    191  NZ        53.6970   44.5810    9.2360 N.3   232  LYS232     -0.1314
    192  N         53.8210   44.4530    4.1410 N.am  233  THR233     -0.1937
    193  CA        52.7620   43.6130    4.6490 C.3   233  THR233      0.2028
    194  C         53.3230   42.2280    4.9030 C.2   233  THR233      0.2642
    195  O         54.1690   41.7490    4.1580 O.2   233  THR233     -0.2714
    196  CB        51.5770   43.5430    3.6620 C.3   233  THR233      0.1808
    197  OG1       50.5660   42.6060    4.1250 O.3   233  THR233     -0.2208
    198  CG2       52.0250   43.0160    2.2920 C.3   233  THR233      0.0379
    199  N         52.8300   41.5890    5.9630 N.am  234  VAL234     -0.1963
    200  CA        53.1270   40.1760    6.2240 C.3   234  VAL234      0.1727
    201  C         52.1430   39.2260    5.5370 C.2   234  VAL234      0.2616
    202  O         52.2440   38.0320    5.7530 O.2   234  VAL234     -0.2715
    203  CB        53.1430   39.8730    7.7530 C.3   234  VAL234      0.0290
    204  CG1       54.1770   40.7580    8.4650 C.3   234  VAL234      0.0023
    205  CG2       51.7620   40.0740    8.3660 C.3   234  VAL234      0.0023
    206  N         51.2010   39.7270    4.7280 N.am  235  ARG235     -0.1977
    207  CA        50.1650   38.8570    4.1390 C.3   235  ARG235      0.1597
    208  C         50.3480   38.6240    2.6410 C.2   235  ARG235      0.2287
    209  O         50.4530   39.5600    1.8790 O.2   235  ARG235     -0.2864
    210  CB        48.7770   39.4460    4.3580 C.3   235  ARG235      0.0334
    211  CG        48.4240   39.8170    5.7870 C.3   235  ARG235      0.0492
    212  CD        46.9460   40.0700    5.9120 C.3   235  ARG235      0.2205
    213  NE        46.4880   40.6990    7.1590 N.pl3 235  ARG235     -0.0865
    214  CZ        45.1880   40.9450    7.4260 C.cat 235  ARG235      0.5346
    215  NH1       44.2370   40.6170    6.5380 N.pl3 235  ARG235      0.1354
    216  NH2       44.8250   41.5230    8.5800 N.pl3 235  ARG235      0.1354
    217  N         48.0090   40.6570    0.4110 N.3   238  ARG238     -0.1245
    218  CA        48.3340   42.0740    0.3120 C.3   238  ARG238      0.1563
    219  C         49.5980   42.3560   -0.5080 C.2   238  ARG238      0.2260
    220  O         49.7240   43.4030   -1.1030 O.2   238  ARG238     -0.2867
    221  CB        48.5130   42.6330    1.7050 C.3   238  ARG238      0.0307
    222  CG        47.1880   42.7410    2.4720 C.3   238  ARG238      0.0489
    223  CD        47.3340   43.2330    3.8850 C.3   238  ARG238      0.2205
    224  NE        46.0190   43.4590    4.4900 N.pl3 238  ARG238     -0.0865
    225  CZ        45.8150   44.0370    5.6730 C.cat 238  ARG238      0.5346
    226  NH1       46.8410   44.4360    6.4000 N.pl3 238  ARG238      0.1354
    227  NH2       44.5740   44.2170    6.1230 N.pl3 238  ARG238      0.1354
    228  N         48.1240   42.3220   -3.8570 N.3   241  GLU241     -0.1231
    229  CA        47.3050   43.5330   -4.0290 C.3   241  GLU241      0.1699
    230  C         48.1930   44.7700   -4.2690 C.2   241  GLU241      0.2592
    231  O         47.9460   45.5700   -5.1910 O.2   241  GLU241     -0.2718
    232  CB        46.4310   43.7200   -2.7930 C.3   241  GLU241      0.0402
    233  CG        45.4890   44.9120   -2.8110 C.3   241  GLU241      0.1161
    234  CD        44.8130   45.1250   -1.4570 C.2   241  GLU241      0.3649
    235  OE1       44.2510   44.1370   -0.9220 O.co2 241  GLU241     -0.2457
    236  OE2       44.8350   46.2730   -0.9320 O.co2 241  GLU241     -0.2457
    237  N         49.2360   44.8980   -3.4480 N.am  242  ASN242     -0.1974
    238  CA        50.0850   46.0850   -3.4180 C.3   242  ASN242      0.1688
    239  C         50.9430   46.2240   -4.6780 C.2   242  ASN242      0.2292
    240  O         51.3110   47.3360   -5.0720 O.2   242  ASN242     -0.2864
    241  CB        51.0120   46.0620   -2.1920 C.3   242  ASN242      0.1181
    242  CG        50.2960   46.3400   -0.8740 C.2   242  ASN242      0.2629
    243  OD1       49.1200   46.6370   -0.8410 O.2   242  ASN242     -0.2716
    244  ND2       51.0310   46.2500    0.2180 N.am  242  ASN242     -0.0877
@<TRIPOS>BOND
     1   231   230    2
     2   240   239    2
     3   239   238    1
     4   230   229    1
     5   230   237   am
     6   229   228    1
     7   229   232    1
     8   237   238    1
     9   238   241    1
    10   233   232    1
    11   233   234    1
    12   166   165    2
    13   241   242    1
    14   165   164    1
    15   234   236   ar
    16   234   235   ar
    17   220   219    2
    18   174   172    1
    19   182   181    1
    20   182   176    1
    21   168   169    1
    22   181   180    1
    23   242   243    2
    24   242   244   am
    25   164   163    1
    26   164   167    1
    27   219   218    1
    28   169   172    1
    29   169   170    1
    30   172   173    1
    31   176   170   am
    32   176   177    1
    33   218   217    1
    34   218   221    1
    35   180   177    1
    36   170   171    2
    37   136   138   ar
    38   136   134   ar
    39   138   137   ar
    40    32    33    1
    41   125   126    1
    42   125   122    1
    43    94    95    1
    44   173   175    1
    45   177   178    1
    46   179   178    2
    47    95    98    1
    48    95    96    1
    49   126   127    1
    50   221   222    1
    51    33    36    1
    52    33    34    1
    53    36    37    1
    54   102   100   am
    55   134   133   ar
    56   209   208    2
    57    98    99    1
    58     1     2    1
    59   124   123    2
    60    38    37   ar
    61   178   183   am
    62   137   135   ar
    63    99   100    1
    64   122   123    1
    65   122   121    1
    66   103   104    1
    67   198   196    1
    68   222   223    1
    69   123   128   am
    70    37    39   ar
    71   100   101    2
    72   208   207    1
    73    96    97    2
    74   127   121    1
    75   133   135   ar
    76   133   132    1
    77     2     3    1
    78   121   119   am
    79   183   184    1
    80    34    35    2
    81   104   105    1
    82   104   107    1
    83   155   154    2
    84   128   129    1
    85   160   158   ar
    86   160   162   ar
    87   196   197    1
    88   196   193    1
    89   158   157   ar
    90   106   105    2
    91    80    81    1
    92   223   224    1
    93   184   185    1
    94   184   187    1
    95   105   117   am
    96   129   132    1
    97   129   130    1
    98   207   210    1
    99   207   206    1
   100   192   185   am
   101   192   193    1
   102   195   194    2
   103     3     4    2
   104     3     5   am
   105   119   120    2
   106   119   118    1
   107   185   186    2
   108   210   211    1
   109    81    84    1
   110    81    82    1
   111   154   153    1
   112   107   108    1
   113   224   225    2
   114   153   156    1
   115   153   152    1
   116    10     9    1
   117   193   194    1
   118   206   201   am
   119   117   118    1
   120   162   161   ar
   121   157   156    1
   122   157   159   ar
   123   194   199   am
   124    84    85    1
   125    59    60    1
   126    59    58    1
   127     5     6    1
   128   109   108   ar
   129   109   111   ar
   130    52    53    1
   131   108   110   ar
   132   187   188    1
   133    86    82   am
   134    86    87    1
   135    57    58    1
   136    57    56    1
   137   130   131    2
   138    82    83    2
   139   201   202    2
   140   201   200    1
   141   225   227    1
   142   225   226    1
   143    53    56    1
   144    53    54    1
   145   211   212    1
   146   212   213    1
   147   199   200    1
   148     9    11    1
   149     9     6    1
   150   161   159   ar
   151   111   112   ar
   152     6     7    1
   153   200   203    1
   154    88    87    1
   155    88    89    2
   156    87    90    1
   157   188   189    1
   158   110   112   ar
   159   110   113   ar
   160   215   214    1
   161    54    55    2
   162   112   114   ar
   163   113   115   ar
   164   213   214    2
   165    61    62    1
   166   189   190    1
   167    92    91    2
   168   214   216    1
   169    49    47   ar
   170    49    50   ar
   171     7    12   am
   172     7     8    2
   173    51    50    1
   174    90    91    1
   175    91    93   am
   176   203   205    1
   177   203   204    1
   178    62    63    1
   179    62    65    1
   180    12    13    1
   181   139   140    1
   182   114   116   ar
   183    64    63    2
   184   115   116   ar
   185    47    45   ar
   186    50    48   ar
   187   148   149    1
   188   148   141   am
   189    63    71   am
   190   190   191    1
   191   149   150    1
   192    65    66    1
   193   140   141    1
   194   140   143    1
   195    68    66   ar
   196    68    70   ar
   197    66    67   ar
   198    16    13    1
   199    16    17    1
   200    71    72    1
   201    13    14    1
   202   141   142    2
   203    74    73    2
   204    70    69   ar
   205    67    69   ar
   206    15    14    2
   207    73    72    1
   208   144   143    1
   209   144   145    1
   210    48    46   ar
   211    45    46   ar
   212    45    44    1
   213   150   151    2
   214    72    75    1
   215    14    23   am
   216    17    19   ar
   217    17    18   ar
   218    44    41    1
   219   146   145   ar
   220    19    21   ar
   221   145   147   ar
   222    23    24    1
   223    75    76    1
   224    78    77    2
   225    18    20   ar
   226    79    77   am
   227    77    76    1
   228    40    41    1
   229    41    42    1
   230    25    24    1
   231    25    26    2
   232    21    22   ar
   233    24    27    1
   234    42    43    2
   235    27    28    1
   236    20    22   ar
   237    31    29   am
   238    28    29    1
   239    29    30    2
