@<TRIPOS>MOLECULE
tmp/1vp8A00.pdb
 196 191 0 0 0
SMALL
GASTEIGER

@<TRIPOS>ATOM
      1  N         34.7550    8.7510   35.3200 N.3    13  ARG13      -0.1245
      2  CA        34.8690    7.3080   35.3300 C.3    13  ARG13       0.1563
      3  C         33.5470    6.5540   35.5120 C.2    13  ARG13       0.2260
      4  O         33.4230    5.4050   35.0780 O.2    13  ARG13      -0.2867
      5  CB        35.8260    6.9710   36.4590 C.3    13  ARG13       0.0307
      6  CG        36.3660    5.6520   36.4350 C.3    13  ARG13       0.0489
      7  CD        37.1560    5.3820   37.7340 C.3    13  ARG13       0.2205
      8  NE        37.9810    4.2120   37.5010 N.pl3  13  ARG13      -0.0865
      9  CZ        38.6180    3.5480   38.4530 C.cat  13  ARG13       0.5346
     10  NH1       38.5490    3.9380   39.7190 N.pl3  13  ARG13       0.1354
     11  NH2       39.3310    2.4890   38.1290 N.pl3  13  ARG13       0.1354
     12  N         41.3880    4.7410   25.0850 N.3    38  ALA38      -0.1231
     13  CA        42.4490    5.2230   25.9880 C.3    38  ALA38       0.1694
     14  C         42.4170    4.3950   27.2590 C.2    38  ALA38       0.2593
     15  O         41.3690    4.2010   27.8880 O.2    38  ALA38      -0.2718
     16  CB        42.2410    6.6810   26.3290 C.3    38  ALA38       0.0304
     17  N         43.5670    3.8810   27.6800 N.am   39  SER39      -0.1938
     18  CA        43.6330    3.2160   28.9810 C.3    39  SER39       0.2055
     19  C         45.0340    3.4260   29.5460 C.2    39  SER39       0.2644
     20  O         46.0460    2.9090   29.0170 O.2    39  SER39      -0.2714
     21  CB        43.2820    1.7480   28.8610 C.3    39  SER39       0.2130
     22  OG        43.0650    1.1830   30.1670 O.3    39  SER39      -0.2179
     23  N         45.0880    4.1670   30.6570 N.am   40  SER40      -0.1935
     24  CA        46.3450    4.5070   31.3130 C.3    40  SER40       0.2055
     25  C         46.9270    3.3410   32.0820 C.2    40  SER40       0.2643
     26  O         48.1150    3.0230   31.9590 O.2    40  SER40      -0.2714
     27  CB        46.0990    5.6640   32.2610 C.3    40  SER40       0.2130
     28  OG        45.5980    6.7590   31.4930 O.3    40  SER40      -0.2179
     29  N         46.0820    2.6670   32.8550 N.am   41  TYR41      -0.1959
     30  CA        46.4970    1.5780   33.7280 C.3    41  TYR41       0.1771
     31  C         45.9260    0.2310   33.2800 C.2    41  TYR41       0.2620
     32  O         46.4090   -0.8200   33.6770 O.2    41  TYR41      -0.2715
     33  CB        46.1180    1.8640   35.1930 C.3    41  TYR41       0.0574
     34  CG        46.7590    3.1170   35.7730 C.ar   41  TYR41      -0.0198
     35  CD1       48.0050    3.1000   36.3960 C.ar   41  TYR41      -0.0009
     36  CD2       46.1290    4.3620   35.6810 C.ar   41  TYR41      -0.0009
     37  CE1       48.5670    4.2140   36.9340 C.ar   41  TYR41       0.0417
     38  CE2       46.7200    5.4930   36.1920 C.ar   41  TYR41       0.0417
     39  CZ        47.9300    5.4120   36.8100 C.ar   41  TYR41       0.1957
     40  OH        48.5140    6.5460   37.3460 O.3    41  TYR41      -0.2866
     41  N         44.9190    0.2520   32.4010 N.am   42  GLY42      -0.1940
     42  CA        44.4210   -0.9730   31.7720 C.3    42  GLY42       0.2014
     43  C         42.9630   -1.2970   32.0160 C.2    42  GLY42       0.2639
     44  O         42.4320   -2.1640   31.3510 O.2    42  GLY42      -0.2714
     45  N         42.2960   -0.6080   32.9560 N.am   43  ASP43      -0.1957
     46  CA        40.9250   -0.9470   33.3360 C.3    43  ASP43       0.1840
     47  C         39.9600   -0.8200   32.1530 C.2    43  ASP43       0.2622
     48  O         39.1810   -1.7280   31.8500 O.2    43  ASP43      -0.2715
     49  CB        40.3830   -0.0360   34.4710 C.3    43  ASP43       0.1450
     50  CG        40.7000   -0.5360   35.8920 C.2    43  ASP43       0.3671
     51  OD1       41.0490   -1.7140   36.1010 O.co2  43  ASP43      -0.2456
     52  OD2       40.5520    0.2720   36.8440 O.co2  43  ASP43      -0.2456
     53  N         39.9910    0.3250   31.4880 N.am   44  THR44      -0.1951
     54  CA        39.0660    0.5620   30.3980 C.3    44  THR44       0.1897
     55  C         39.3380   -0.3920   29.2300 C.2    44  THR44       0.2313
     56  O         38.4230   -0.8440   28.5460 O.2    44  THR44      -0.2863
     57  CB        39.1140    2.0250   29.9230 C.3    44  THR44       0.1794
     58  OG1       38.9750    2.9010   31.0540 O.3    44  THR44      -0.2208
     59  CG2       38.0030    2.3050   28.9460 C.3    44  THR44       0.0378
     60  N         45.2630    2.5880   23.5170 N.3    58  VAL58      -0.1231
     61  CA        46.2920    3.6250   23.5280 C.3    58  VAL58       0.1692
     62  C         46.5380    4.0010   24.9760 C.2    58  VAL58       0.2593
     63  O         45.6440    4.4200   25.7070 O.2    58  VAL58      -0.2718
     64  CB        45.8720    4.8300   22.6920 C.3    58  VAL58       0.0266
     65  CG1       46.9730    5.8510   22.6860 C.3    58  VAL58       0.0020
     66  CG2       45.5520    4.4180   21.2660 C.3    58  VAL58       0.0020
     67  N         47.7830    3.7990   25.3980 N.am   59  THR59      -0.1939
     68  CA        48.1730    4.0590   26.7810 C.3    59  THR59       0.2028
     69  C         49.1120    5.2530   26.8660 C.2    59  THR59       0.2642
     70  O         49.4660    5.8770   25.8570 O.2    59  THR59      -0.2714
     71  CB        48.7460    2.7560   27.4230 C.3    59  THR59       0.1808
     72  OG1       48.8510    2.9040   28.8480 O.3    59  THR59      -0.2208
     73  CG2       50.1080    2.3580   26.8370 C.3    59  THR59       0.0379
     74  N         49.5260    5.5760   28.0800 N.am   60  TYR60      -0.1973
     75  CA        50.4920    6.6440   28.3050 C.3    60  TYR60       0.1639
     76  C         51.8680    6.3440   27.7320 C.2    60  TYR60       0.2290
     77  O         52.3450    5.2300   27.7710 O.2    60  TYR60      -0.2864
     78  CB        50.6260    6.9100   29.8050 C.3    60  TYR60       0.0560
     79  CG        49.5270    7.6430   30.5020 C.ar   60  TYR60      -0.0198
     80  CD1       48.6790    8.4980   29.8610 C.ar   60  TYR60      -0.0009
     81  CD2       49.4260    7.5680   31.8930 C.ar   60  TYR60      -0.0009
     82  CE1       47.7530    9.3180   30.5500 C.ar   60  TYR60       0.0417
     83  CE2       48.4760    8.3890   32.5770 C.ar   60  TYR60       0.0417
     84  CZ        47.6640    9.2140   31.8710 C.ar   60  TYR60       0.1957
     85  OH        46.7430   10.0300   32.5580 O.3    60  TYR60      -0.2866
     86  N         55.4570    9.2290   31.4510 N.3    64  PHE64      -0.1241
     87  CA        54.4110   10.2060   31.6920 C.3    64  PHE64       0.1605
     88  C         54.4010   10.6080   33.1600 C.2    64  PHE64       0.2264
     89  O         54.2160   11.7970   33.4570 O.2    64  PHE64      -0.2867
     90  CB        53.0270    9.6850   31.2640 C.3    64  PHE64       0.0534
     91  CG        51.9450   10.6590   31.4810 C.ar   64  PHE64      -0.0203
     92  CD1       51.7020   11.6450   30.5840 C.ar   64  PHE64      -0.0042
     93  CD2       51.1490   10.5960   32.5840 C.ar   64  PHE64      -0.0042
     94  CE1       50.7060   12.5750   30.7760 C.ar   64  PHE64      -0.0003
     95  CE2       50.1260   11.5270   32.7850 C.ar   64  PHE64      -0.0003
     96  CZ        49.9070   12.5200   31.8730 C.ar   64  PHE64      -0.0000
     97  N         52.5030   11.6060   23.4060 N.3    91  HIS91      -0.1241
     98  CA        51.1870   12.2170   23.3290 C.3    91  HIS91       0.1621
     99  C         51.1950   13.4010   22.3490 C.2    91  HIS91       0.2264
    100  O         51.7920   14.4320   22.6190 O.2    91  HIS91      -0.2867
    101  CB        50.7410   12.6950   24.7080 C.3    91  HIS91       0.0745
    102  CG        50.6460   11.6000   25.7250 C.ar   91  HIS91       0.0817
    103  ND1       50.1170   11.8140   26.9720 N.ar   91  HIS91      -0.2268
    104  CD2       51.0440   10.3040   25.7030 C.ar   91  HIS91       0.1154
    105  CE1       50.1950   10.6790   27.6760 C.ar   91  HIS91       0.1986
    106  NE2       50.7510    9.7430   26.9280 N.ar   91  HIS91      -0.2212
    107  N         39.5700   20.3900   25.3580 N.3   118  ARG118     -0.1245
    108  CA        39.2200   20.0670   26.7550 C.3   118  ARG118      0.1563
    109  C         38.1090   20.9550   27.2800 C.2   118  ARG118      0.2260
    110  O         37.2010   20.4870   27.9630 O.2   118  ARG118     -0.2867
    111  CB        40.4340   20.2180   27.6880 C.3   118  ARG118      0.0307
    112  CG        41.5130   19.1600   27.5390 C.3   118  ARG118      0.0489
    113  CD        42.7580   19.6080   28.3040 C.3   118  ARG118      0.2205
    114  NE        43.7310   18.5230   28.4530 N.pl3 118  ARG118     -0.0865
    115  CZ        45.0180   18.7100   28.6910 C.cat 118  ARG118      0.5346
    116  NH1       45.5220   19.9350   28.8020 N.pl3 118  ARG118      0.1354
    117  NH2       45.8230   17.6670   28.8850 N.pl3 118  ARG118      0.1354
    118  N         37.6050   16.7930   28.4550 N.3   123  HIS123     -0.1241
    119  CA        38.8480   16.0600   28.3240 C.3   123  HIS123      0.1621
    120  C         38.6770   14.7680   27.5140 C.2   123  HIS123      0.2264
    121  O         39.5140   14.4290   26.7120 O.2   123  HIS123     -0.2867
    122  CB        39.4160   15.7400   29.7030 C.3   123  HIS123      0.0745
    123  CG        39.9340   16.9410   30.4230 C.ar  123  HIS123      0.0817
    124  ND1       41.2810   17.2380   30.4990 N.ar  123  HIS123     -0.2268
    125  CD2       39.2710   17.9410   31.0550 C.ar  123  HIS123      0.1154
    126  CE1       41.4160   18.3670   31.1770 C.ar  123  HIS123      0.1986
    127  NE2       40.2240   18.8020   31.5460 N.ar  123  HIS123     -0.2212
    128  N         38.9430   15.5080   23.7900 N.3   126  LYS126     -0.1231
    129  CA        40.3290   15.7870   23.4820 C.3   126  LYS126      0.1693
    130  C         41.1190   14.4860   23.3380 C.2   126  LYS126      0.2591
    131  O         41.8980   14.3110   22.3930 O.2   126  LYS126     -0.2718
    132  CB        40.9210   16.7330   24.5460 C.3   126  LYS126      0.0285
    133  CG        42.4170   17.0200   24.3680 C.3   126  LYS126      0.0035
    134  CD        43.3110   16.0240   25.1650 C.3   126  LYS126      0.0206
    135  CE        44.6960   16.5710   25.3720 C.3   126  LYS126      0.1093
    136  NZ        45.5240   15.6120   26.1200 N.3   126  LYS126     -0.1314
    137  N         40.9160   13.5860   24.2860 N.am  127  VAL127     -0.1980
    138  CA        41.6210   12.3140   24.2570 C.3   127  VAL127      0.1595
    139  C         41.2150   11.4710   23.0700 C.2   127  VAL127      0.2287
    140  O         42.0550   10.8750   22.4190 O.2   127  VAL127     -0.2864
    141  CB        41.3960   11.5840   25.5750 C.3   127  VAL127      0.0276
    142  CG1       41.9480   10.1670   25.5460 C.3   127  VAL127      0.0022
    143  CG2       42.0250   12.3530   26.7170 C.3   127  VAL127      0.0022
    144  N         43.2510   12.8040   20.2580 N.3   130  GLU130     -0.1231
    145  CA        44.6660   12.5750   20.4410 C.3   130  GLU130      0.1699
    146  C         45.0370   11.1220   20.1910 C.2   130  GLU130      0.2592
    147  O         46.0050   10.8150   19.4830 O.2   130  GLU130     -0.2718
    148  CB        45.0640   13.0250   21.8410 C.3   130  GLU130      0.0402
    149  CG        46.5570   12.9680   22.0900 C.3   130  GLU130      0.1161
    150  CD        46.9930   13.6740   23.3500 C.2   130  GLU130      0.3649
    151  OE1       46.1870   13.7300   24.2880 O.co2 130  GLU130     -0.2457
    152  OE2       48.1200   14.1920   23.3490 O.co2 130  GLU130     -0.2457
    153  N         44.2790   10.1940   20.7730 N.am  131  ILE131     -0.1980
    154  CA        44.6430    8.8000   20.6420 C.3   131  ILE131      0.1595
    155  C         44.4490    8.2710   19.2300 C.2   131  ILE131      0.2287
    156  O         45.1100    7.3130   18.8210 O.2   131  ILE131     -0.2864
    157  CB        43.9040    7.8900   21.6680 C.3   131  ILE131      0.0276
    158  CG1       42.4010    7.7760   21.3620 C.3   131  ILE131      0.0022
    159  CG2       44.1990    8.3260   23.0990 C.3   131  ILE131      0.0022
    160  CD1       41.6360    6.8890   22.3230 C.3   131  ILE131      0.0001
    161  N         38.2060    9.6340   28.2390 N.3   150  GLY150     -0.1210
    162  CA        37.5030   10.1020   29.3940 C.3   150  GLY150      0.1956
    163  C         38.2160   11.2030   30.1450 C.2   150  GLY150      0.2612
    164  O         39.2260   11.7480   29.7080 O.2   150  GLY150     -0.2717
    165  N         37.6140   11.5530   31.2670 N.am  151  ARG151     -0.1965
    166  CA        38.1790   12.5090   32.1780 C.3   151  ARG151      0.1729
    167  C         38.9220   11.7620   33.2840 C.2   151  ARG151      0.2617
    168  O         38.3100   11.1310   34.1600 O.2   151  ARG151     -0.2715
    169  CB        37.1000   13.3930   32.8000 C.3   151  ARG151      0.0348
    170  CG        37.6020   14.4080   33.8390 C.3   151  ARG151      0.0492
    171  CD        38.5310   15.3460   33.2580 C.3   151  ARG151      0.2205
    172  NE        38.9380   16.4040   34.1890 N.pl3 151  ARG151     -0.0865
    173  CZ        40.1910   16.8000   34.4110 C.cat 151  ARG151      0.5346
    174  NH1       41.2390   16.2360   33.8500 N.pl3 151  ARG151      0.1354
    175  NH2       40.3980   17.8040   35.2550 N.pl3 151  ARG151      0.1354
    176  N         40.2420   11.7990   33.1690 N.am  152  SER152     -0.1936
    177  CA        41.2180   11.2830   34.1640 C.3   152  SER152      0.2055
    178  C         41.3270    9.7630   34.1820 C.2   152  SER152      0.2643
    179  O         42.4430    9.2140   34.0290 O.2   152  SER152     -0.2714
    180  CB        40.9210   11.8110   35.5570 C.3   152  SER152      0.2130
    181  OG        40.9420   13.2580   35.6080 O.3   152  SER152     -0.2179
    182  N         40.2040    9.0750   34.4300 N.am  153  ARG153     -0.1963
    183  CA        40.1590    7.6100   34.4740 C.3   153  ARG153      0.1729
    184  C         38.8920    7.1660   33.7970 C.2   153  ARG153      0.2616
    185  O         37.9160    7.9270   33.7170 O.2   153  ARG153     -0.2715
    186  CB        40.1550    7.0930   35.9060 C.3   153  ARG153      0.0348
    187  CG        41.4350    7.3910   36.6780 C.3   153  ARG153      0.0492
    188  CD        42.6540    6.6660   36.1490 C.3   153  ARG153      0.2205
    189  NE        42.5180    5.2420   35.9940 N.pl3 153  ARG153     -0.0865
    190  CZ        42.7130    4.3630   36.9420 C.cat 153  ARG153      0.5346
    191  NH1       42.9630    4.7660   38.1810 N.pl3 153  ARG153      0.1354
    192  NH2       42.5980    3.0840   36.6540 N.pl3 153  ARG153      0.1354
    193  N         38.8570    5.9270   33.3310 N.am  154  GLY154     -0.1955
    194  CA        37.6940    5.4210   32.6460 C.3   154  GLY154      0.1869
    195  C         37.4050    6.1500   31.3620 C.2   154  GLY154      0.2309
    196  O         38.3020    6.7020   30.7380 O.2   154  GLY154     -0.2863
@<TRIPOS>BOND
     1   156   155    2
     2   155   154    1
     3   147   146    2
     4   146   145    1
     5   146   153   am
     6   144   145    1
     7   145   148    1
     8   154   153    1
     9   154   157    1
    10    66    64    1
    11   158   157    1
    12   158   160    1
    13   157   159    1
    14   148   149    1
    15   149   150    1
    16    99   100    2
    17    99    98    1
    18   131   130    2
    19   140   139    2
    20    65    64    1
    21    64    61    1
    22   139   138    1
    23    98    97    1
    24    98   101    1
    25   130   129    1
    26   130   137   am
    27   152   150   ar
    28   150   151   ar
    29   129   128    1
    30   129   132    1
    31    60    61    1
    32    61    62    1
    33   138   137    1
    34   138   141    1
    35   133   132    1
    36   133   134    1
    37   101   102    1
    38    62    67   am
    39    62    63    2
    40    12    13    1
    41   134   135    1
    42   107   108    1
    43   135   136    1
    44    67    68    1
    45   142   141    1
    46   141   143    1
    47   104   102   ar
    48   104   106   ar
    49   102   103   ar
    50    70    69    2
    51    13    16    1
    52    13    14    1
    53   121   120    2
    54   108   109    1
    55   108   111    1
    56    68    69    1
    57    68    71    1
    58    73    71    1
    59    69    74   am
    60   106   105   ar
    61   103   105   ar
    62    14    17   am
    63    14    15    2
    64   109   110    2
    65    71    72    1
    66   120   119    1
    67   112   111    1
    68   112   113    1
    69    17    18    1
    70    76    77    2
    71    76    75    1
    72    74    75    1
    73   161   162    1
    74   113   114    1
    75    75    78    1
    76   119   118    1
    77   119   122    1
    78   114   115    2
    79    56    55    2
    80   115   116    1
    81   115   117    1
    82    21    18    1
    83    21    22    1
    84    59    57    1
    85    18    19    1
    86    20    19    2
    87    55    54    1
    88   162   163    1
    89    19    23   am
    90   122   123    1
    91   164   163    2
    92    78    79    1
    93    80    79   ar
    94    80    82   ar
    95    57    54    1
    96    57    58    1
    97   163   165   am
    98    54    53    1
    99   123   124   ar
   100   123   125   ar
   101   124   126   ar
   102    79    81   ar
   103    82    84   ar
   104    92    94   ar
   105    92    91   ar
   106    23    24    1
   107   196   195    2
   108    94    96   ar
   109   125   127   ar
   110   126   127   ar
   111    90    91    1
   112    90    87    1
   113   165   166    1
   114    24    25    1
   115    24    27    1
   116    44    43    2
   117   195   194    1
   118    86    87    1
   119    91    93   ar
   120    53    47   am
   121    28    27    1
   122    87    88    1
   123    42    43    1
   124    42    41    1
   125    48    47    2
   126    84    85    1
   127    84    83   ar
   128    96    95   ar
   129    81    83   ar
   130    26    25    2
   131    43    45   am
   132    25    29   am
   133    47    46    1
   134   166   169    1
   135   166   167    1
   136    41    31   am
   137    93    95   ar
   138   194   193    1
   139   169   170    1
   140    29    30    1
   141    45    46    1
   142    88    89    2
   143   176   167   am
   144   176   177    1
   145   171   170    1
   146   171   172    1
   147    31    32    2
   148    31    30    1
   149   167   168    2
   150   193   184   am
   151    46    49    1
   152   185   184    2
   153    30    33    1
   154   184   183    1
   155   174   173    1
   156   179   178    2
   157   177   178    1
   158   177   180    1
   159   178   182   am
   160   172   173    2
   161   173   175    1
   162   182   183    1
   163    49    50    1
   164   183   186    1
   165     4     3    2
   166    33    34    1
   167     1     2    1
   168     2     3    1
   169     2     5    1
   170   180   181    1
   171    36    34   ar
   172    36    38   ar
   173    34    35   ar
   174    50    51   ar
   175    50    52   ar
   176   186   187    1
   177   189   188    1
   178   189   190    2
   179   188   187    1
   180    38    39   ar
   181    35    37   ar
   182     6     5    1
   183     6     7    1
   184   192   190    1
   185    39    37   ar
   186    39    40    1
   187   190   191    1
   188     8     7    1
   189     8     9    2
   190    11     9    1
   191     9    10    1
