@<TRIPOS>MOLECULE
tmp/1vpaA00.pdb
 152 145 0 0 0
SMALL
GASTEIGER

@<TRIPOS>ATOM
      1  N         -9.7900  120.7270   -5.5970 N.3     9  LEU9       -0.1231
      2  CA        -9.9650  121.4880   -4.3650 C.3     9  LEU9        0.1693
      3  C         -9.4660  120.6860   -3.1730 C.2     9  LEU9        0.2592
      4  O        -10.0200  119.6470   -2.8600 O.2     9  LEU9       -0.2718
      5  CB       -11.4420  121.8170   -4.1770 C.3     9  LEU9        0.0284
      6  CG       -12.0540  122.7030   -5.2640 C.3     9  LEU9        0.0019
      7  CD1      -13.5700  122.9660   -5.0390 C.3     9  LEU9        0.0001
      8  CD2      -11.2660  124.0210   -5.3630 C.3     9  LEU9        0.0001
      9  N         -8.4180  121.1720   -2.5200 N.am   10  ALA10      -0.1966
     10  CA        -7.8200  120.4920   -1.3680 C.3    10  ALA10       0.1728
     11  C         -7.2480  121.5130   -0.3850 C.2    10  ALA10       0.2616
     12  O         -6.1410  121.3270    0.1610 O.2    10  ALA10      -0.2715
     13  CB        -6.7270  119.5270   -1.8380 C.3    10  ALA10       0.0334
     14  N         -8.0220  122.5830   -0.1830 N.am   11  ALA11      -0.1963
     15  CA        -7.7070  123.6830    0.7320 C.3    11  ALA11       0.1728
     16  C         -8.5360  123.6640    2.0190 C.2    11  ALA11       0.2617
     17  O         -8.2630  124.4390    2.9590 O.2    11  ALA11      -0.2715
     18  CB        -7.8930  125.0030    0.0320 C.3    11  ALA11       0.0334
     19  N         -9.5380  122.7950    2.0770 N.am   12  GLY12      -0.1940
     20  CA       -10.3550  122.6600    3.2790 C.3    12  GLY12       0.2014
     21  C         -9.6360  122.0460    4.4730 C.2    12  GLY12       0.2639
     22  O         -8.5040  121.5300    4.3550 O.2    12  GLY12      -0.2714
     23  N        -10.3090  122.0950    5.6250 N.am   13  LYS13      -0.1963
     24  CA        -9.7060  121.7040    6.9030 C.3    13  LYS13       0.1728
     25  C        -10.3290  120.4120    7.4850 C.2    13  LYS13       0.2617
     26  O         -9.7300  119.7520    8.3530 O.2    13  LYS13      -0.2715
     27  CB        -9.7920  122.8820    7.8750 C.3    13  LYS13       0.0311
     28  CG        -9.2280  124.1730    7.3050 C.3    13  LYS13       0.0038
     29  CD        -9.3450  125.3340    8.2780 C.3    13  LYS13       0.0206
     30  CE       -10.7010  126.0100    8.1960 C.3    13  LYS13       0.1093
     31  NZ       -10.7290  127.2840    8.9790 N.3    13  LYS13      -0.1314
     32  N        -11.5060  120.0270    6.9900 N.am   14  GLY14      -0.1940
     33  CA       -12.1450  118.7860    7.4240 C.3    14  GLY14       0.2014
     34  C        -12.4840  118.7900    8.8950 C.2    14  GLY14       0.2639
     35  O        -12.2300  117.8290    9.6090 O.2    14  GLY14      -0.2714
     36  N        -13.0740  119.8880    9.3440 N.am   15  GLU15      -0.1963
     37  CA       -13.3670  120.0680   10.7540 C.3    15  GLU15       0.1733
     38  C        -14.3120  119.0170   11.2580 C.2    15  GLU15       0.2616
     39  O        -14.1610  118.5510   12.3760 O.2    15  GLU15      -0.2715
     40  CB       -13.9600  121.4430   11.0100 C.3    15  GLU15       0.0429
     41  CG       -12.9960  122.5730   10.6790 C.3    15  GLU15       0.1163
     42  CD       -13.5050  123.9130   11.1580 C.2    15  GLU15       0.3649
     43  OE1      -14.4940  123.9330   11.9360 O.co2  15  GLU15      -0.2457
     44  OE2      -12.9180  124.9420   10.7490 O.co2  15  GLU15      -0.2457
     45  N        -15.2760  118.6260   10.4320 N.am   16  ARG16      -0.1963
     46  CA       -16.2550  117.6150   10.8350 C.3    16  ARG16       0.1729
     47  C        -15.6650  116.2000   10.9820 C.2    16  ARG16       0.2616
     48  O        -16.2970  115.3300   11.5670 O.2    16  ARG16      -0.2715
     49  CB       -17.4580  117.6260    9.8900 C.3    16  ARG16       0.0348
     50  CG       -18.2590  118.9440    9.9610 C.3    16  ARG16       0.0492
     51  CD       -19.3550  118.9850    8.9280 C.3    16  ARG16       0.2205
     52  NE       -18.8000  119.1840    7.5980 N.pl3  16  ARG16      -0.0865
     53  CZ       -19.4480  118.9750    6.4530 C.cat  16  ARG16       0.5346
     54  NH1      -20.7010  118.5470    6.4450 N.pl3  16  ARG16       0.1354
     55  NH2      -18.8310  119.2020    5.3010 N.pl3  16  ARG16       0.1354
     56  N        -14.4570  115.9880   10.4670 N.am   17  MET17      -0.1977
     57  CA       -13.7520  114.7100   10.6050 C.3    17  MET17       0.1605
     58  C        -13.2650  114.4580   12.0270 C.2    17  MET17       0.2287
     59  O        -13.1000  113.3060   12.4420 O.2    17  MET17      -0.2864
     60  CB       -12.5260  114.6990    9.6880 C.3    17  MET17       0.0413
     61  CG       -12.8520  114.6940    8.2290 C.3    17  MET17       0.0598
     62  SD       -13.6770  113.1620    7.7200 S.3    17  MET17      -0.1393
     63  CE       -12.5330  111.8780    8.2350 C.3    17  MET17       0.0692
     64  N         -8.6180  115.9540    6.0060 N.3    23  LYS23      -0.1231
     65  CA        -8.9770  114.6650    5.4090 C.3    23  LYS23       0.1693
     66  C         -8.2680  114.3290    4.0990 C.2    23  LYS23       0.2591
     67  O         -7.9390  113.1730    3.8400 O.2    23  LYS23      -0.2718
     68  CB       -10.4970  114.6190    5.1800 C.3    23  LYS23       0.0285
     69  CG       -11.0770  115.8320    4.4080 C.3    23  LYS23       0.0035
     70  CD       -12.5260  116.0140    4.7380 C.3    23  LYS23       0.0206
     71  CE       -13.1830  117.0710    3.8940 C.3    23  LYS23       0.1093
     72  NZ       -14.6650  117.0010    4.0490 N.3    23  LYS23      -0.1314
     73  N         -8.0610  115.3470    3.2690 N.am   24  GLN24      -0.1979
     74  CA        -7.4450  115.1670    1.9500 C.3    24  GLN24       0.1601
     75  C         -6.0080  114.6830    2.0210 C.2    24  GLN24       0.2287
     76  O         -5.5030  114.1650    1.0300 O.2    24  GLN24      -0.2864
     77  CB        -7.5080  116.4700    1.1380 C.3    24  GLN24       0.0394
     78  CG        -6.7480  117.6430    1.7310 C.3    24  GLN24       0.0908
     79  CD        -7.6260  118.5720    2.5330 C.2    24  GLN24       0.2608
     80  OE1       -8.4910  118.1250    3.2790 O.2    24  GLN24      -0.2717
     81  NE2       -7.4050  119.8760    2.3880 N.am   24  GLN24      -0.0878
     82  N         -8.5780  129.5600   -0.5920 N.3    78  GLY78      -0.1210
     83  CA        -9.1480  130.6190    0.2210 C.3    78  GLY78       0.1956
     84  C         -9.6830  130.0720    1.5280 C.2    78  GLY78       0.2612
     85  O         -9.5130  128.8940    1.8600 O.2    78  GLY78      -0.2717
     86  N        -10.3640  130.9350    2.2640 N.am   79  ASP79      -0.1959
     87  CA       -10.9750  130.5330    3.5210 C.3    79  ASP79       0.1840
     88  C        -12.2570  129.7440    3.2720 C.2    79  ASP79       0.2623
     89  O        -12.7880  129.1570    4.2030 O.2    79  ASP79      -0.2715
     90  CB       -11.2660  131.7490    4.4160 C.3    79  ASP79       0.1450
     91  CG       -10.0920  132.6920    4.5300 C.2    79  ASP79       0.3671
     92  OD1       -8.9280  132.2480    4.5400 O.co2  79  ASP79      -0.2456
     93  OD2      -10.3480  133.8990    4.5980 O.co2  79  ASP79      -0.2456
     94  N        -12.7560  129.7520    2.0340 N.am   80  THR80      -0.1937
     95  CA       -13.9420  128.9740    1.6560 C.3    80  THR80       0.2028
     96  C        -13.7420  128.2640    0.3470 C.2    80  THR80       0.2642
     97  O        -12.8890  128.6650   -0.4710 O.2    80  THR80      -0.2714
     98  CB       -15.2060  129.8440    1.4410 C.3    80  THR80       0.1808
     99  OG1      -14.9610  130.8090    0.4100 O.3    80  THR80      -0.2208
    100  CG2      -15.5960  130.5480    2.7110 C.3    80  THR80       0.0379
    101  N        -14.5650  127.2310    0.1580 N.am   81  ARG81      -0.1977
    102  CA       -14.6540  126.5390   -1.1140 C.3    81  ARG81       0.1597
    103  C        -14.7790  127.5120   -2.2900 C.2    81  ARG81       0.2287
    104  O        -13.9990  127.4190   -3.2210 O.2    81  ARG81      -0.2864
    105  CB       -15.8230  125.5400   -1.1390 C.3    81  ARG81       0.0334
    106  CG       -15.7200  124.5670   -2.2700 C.3    81  ARG81       0.0492
    107  CD       -16.8200  123.5430   -2.2390 C.3    81  ARG81       0.2205
    108  NE       -16.7010  122.5680   -3.3330 N.pl3  81  ARG81      -0.0865
    109  CZ       -16.9740  122.8400   -4.6080 C.cat  81  ARG81       0.5346
    110  NH1      -17.4370  124.0430   -4.9800 N.pl3  81  ARG81       0.1354
    111  NH2      -16.8210  121.8900   -5.5190 N.pl3  81  ARG81       0.1354
    112  N        -11.6920  129.3020   -2.8510 N.3    84  SER84      -0.1217
    113  CA       -10.6610  128.4300   -3.3870 C.3    84  SER84       0.1889
    114  C        -10.8970  128.2730   -4.8870 C.2    84  SER84       0.2288
    115  O         -9.9330  128.3500   -5.6780 O.2    84  SER84      -0.2866
    116  CB       -10.5920  127.0950   -2.6280 C.3    84  SER84       0.2089
    117  OG       -10.0040  127.3080   -1.3400 O.3    84  SER84      -0.2183
    118  N        -14.1260  118.0640   -5.6530 N.3   104  ASP104     -0.1225
    119  CA       -13.6990  118.0000   -4.2620 C.3   104  ASP104      0.1805
    120  C        -12.7060  116.8800   -4.1490 C.2   104  ASP104      0.2598
    121  O        -13.0180  115.7540   -4.5260 O.2   104  ASP104     -0.2718
    122  CB       -14.8640  117.7200   -3.3180 C.3   104  ASP104      0.1424
    123  CG       -15.9820  118.7450   -3.4410 C.2   104  ASP104      0.3668
    124  OD1      -15.7270  119.9100   -3.7730 O.co2 104  ASP104     -0.2456
    125  OD2      -17.1320  118.3910   -3.1900 O.co2 104  ASP104     -0.2456
    126  N        -11.5040  117.1780   -3.6500 N.am  105  SER105     -0.1938
    127  CA       -10.5100  116.1420   -3.4510 C.3   105  SER105      0.2055
    128  C        -11.0000  115.1220   -2.4390 C.2   105  SER105      0.2642
    129  O        -10.5610  113.9880   -2.4630 O.2   105  SER105     -0.2714
    130  CB        -9.1840  116.7300   -2.9890 C.3   105  SER105      0.2130
    131  OG        -9.3250  117.3890   -1.7380 O.3   105  SER105     -0.2179
    132  N        -11.9040  115.5340   -1.5530 N.am  106  ALA106     -0.1977
    133  CA       -12.4890  114.6530   -0.5400 C.3   106  ALA106      0.1597
    134  C        -13.4680  113.6150   -1.0880 C.2   106  ALA106      0.2287
    135  O        -13.9450  112.7740   -0.3460 O.2   106  ALA106     -0.2864
    136  CB       -13.1740  115.4840    0.5210 C.3   106  ALA106      0.0319
    137  N        -18.4500  111.8500   -0.4910 N.3   203  LYS203     -0.1245
    138  CA       -17.4350  112.7500   -0.0040 C.3   203  LYS203      0.1561
    139  C        -17.0530  112.2760    1.3720 C.2   203  LYS203      0.2260
    140  O        -17.8950  112.1550    2.2410 O.2   203  LYS203     -0.2867
    141  CB       -17.9890  114.1740    0.0560 C.3   203  LYS203      0.0271
    142  CG       -16.9550  115.2600    0.3010 C.3   203  LYS203      0.0035
    143  CD       -17.6120  116.6410    0.1770 C.3   203  LYS203      0.0206
    144  CE       -18.4470  116.9540    1.4190 C.3   203  LYS203      0.1093
    145  NZ       -19.6490  117.7420    1.1650 N.3   203  LYS203     -0.1314
    146  N        -16.4470  112.9380    4.6320 N.3   205  THR205     -0.1218
    147  CA       -16.8310  114.1060    5.4270 C.3   205  THR205      0.1862
    148  C        -16.7220  113.8600    6.9430 C.2   205  THR205      0.2287
    149  O        -16.2790  114.7420    7.6770 O.2   205  THR205     -0.2866
    150  CB       -18.2680  114.4930    5.1080 C.3   205  THR205      0.1770
    151  OG1      -18.4310  114.5810    3.6890 O.3   205  THR205     -0.2211
    152  CG2      -18.6360  115.8160    5.7610 C.3   205  THR205      0.0375
@<TRIPOS>BOND
     1   115   114    2
     2   118   119    1
     3     1     2    1
     4   111   109    1
     5     8     6    1
     6     6     7    1
     7     6     5    1
     8   110   109    1
     9   114   113    1
    10   109   108    2
    11   121   120    2
    12     2     5    1
    13     2     3    1
    14   119   120    1
    15   119   122    1
    16   120   126   am
    17   124   123   ar
    18   126   127    1
    19   127   130    1
    20   127   128    1
    21   123   122    1
    22   123   125   ar
    23   113   112    1
    24   113   116    1
    25   108   107    1
    26   104   103    2
    27     3     4    2
    28     3     9   am
    29   130   131    1
    30   116   117    1
    31     9    10    1
    32   129   128    2
    33   128   132   am
    34   103   102    1
    35   106   107    1
    36   106   105    1
    37    13    10    1
    38   132   133    1
    39    10    11    1
    40   105   102    1
    41   102   101    1
    42   134   133    1
    43   134   135    2
    44    82    83    1
    45   133   136    1
    46   137   138    1
    47    97    96    2
    48    11    14   am
    49    11    12    2
    50    14    15    1
    51   138   141    1
    52   138   139    1
    53    18    15    1
    54   141   142    1
    55   101    96   am
    56   143   142    1
    57   143   144    1
    58    83    84    1
    59    96    95    1
    60    99    98    1
    61    15    16    1
    62    76    75    2
    63    77    78    1
    64    77    74    1
    65   145   144    1
    66   139   140    2
    67    98    95    1
    68    98   100    1
    69    84    85    2
    70    84    86   am
    71    95    94    1
    72    78    79    1
    73    74    75    1
    74    74    73    1
    75    16    19   am
    76    16    17    2
    77    94    88   am
    78    19    20    1
    79    86    87    1
    80    81    79   am
    81    79    80    2
    82    73    66   am
    83    88    87    1
    84    88    89    2
    85    20    21    1
    86    87    90    1
    87   151   150    1
    88    67    66    2
    89    71    72    1
    90    71    70    1
    91    66    65    1
    92    22    21    2
    93    69    70    1
    94    69    68    1
    95    90    91    1
    96    21    23   am
    97    91    92   ar
    98    91    93   ar
    99   146   147    1
   100   150   147    1
   101   150   152    1
   102    68    65    1
   103    55    53    1
   104    65    64    1
   105   147   148    1
   106    23    24    1
   107    54    53    1
   108    53    52    2
   109    24    25    1
   110    24    27    1
   111   148   149    2
   112    32    33    1
   113    32    25   am
   114    28    27    1
   115    28    29    1
   116    33    34    1
   117    25    26    2
   118    52    51    1
   119    62    61    1
   120    62    63    1
   121    30    29    1
   122    30    31    1
   123    61    60    1
   124    34    36   am
   125    34    35    2
   126    51    50    1
   127    36    37    1
   128    60    57    1
   129    49    50    1
   130    49    46    1
   131    45    46    1
   132    45    38   am
   133    56    57    1
   134    56    47   am
   135    57    58    1
   136    41    40    1
   137    41    42    1
   138    44    42   ar
   139    37    40    1
   140    37    38    1
   141    46    47    1
   142    47    48    2
   143    42    43   ar
   144    38    39    2
   145    58    59    2
