@<TRIPOS>MOLECULE
tmp/1vpdA00.pdb
 102 96 0 0 0
SMALL
GASTEIGER

@<TRIPOS>ATOM
      1  N          3.0490   35.3940   56.4700 N.3    90  SER90      -0.1217
      2  CA         2.2670   36.3410   57.2400 C.3    90  SER90       0.1889
      3  C          2.2850   37.6830   56.5280 C.2    90  SER90       0.2288
      4  O          3.3340   38.3540   56.4890 O.2    90  SER90      -0.2866
      5  CB         2.8650   36.4940   58.6300 C.3    90  SER90       0.2089
      6  OG         2.8810   35.2650   59.3150 O.3    90  SER90      -0.2183
      7  N          0.9550   30.4870   59.6390 N.3   114  VAL114     -0.1231
      8  CA         1.2020   29.4860   60.6550 C.3   114  VAL114      0.1692
      9  C          1.6170   30.0940   61.9640 C.2   114  VAL114      0.2593
     10  O          2.0690   31.2500   62.0190 O.2   114  VAL114     -0.2718
     11  CB         2.2910   28.4580   60.1920 C.3   114  VAL114      0.0266
     12  CG1        2.0100   27.9550   58.7890 C.3   114  VAL114      0.0020
     13  CG2        3.7000   29.0460   60.2410 C.3   114  VAL114      0.0020
     14  N          1.5270   29.2850   63.0130 N.am  115  SER115     -0.1938
     15  CA         2.1150   29.6530   64.3040 C.3   115  SER115      0.2055
     16  C          2.6940   28.4550   65.0380 C.2   115  SER115      0.2644
     17  O          2.1220   27.3550   65.0360 O.2   115  SER115     -0.2714
     18  CB         1.0850   30.3320   65.1880 C.3   115  SER115      0.2130
     19  OG         1.7070   30.7410   66.3810 O.3   115  SER115     -0.2179
     20  N          3.8090   28.7040   65.7130 N.am  116  GLY116     -0.1939
     21  CA         4.4050   27.7340   66.6110 C.3   116  GLY116      0.2014
     22  C          5.8810   27.9250   66.8390 C.2   116  GLY116      0.2639
     23  O          6.4660   27.3170   67.7490 O.2   116  GLY116     -0.2714
     24  N          6.5060   28.7640   66.0230 N.am  117  GLY117     -0.1939
     25  CA         7.9120   29.0640   66.1650 C.3   117  GLY117      0.2014
     26  C          8.7730   28.0240   65.4850 C.2   117  GLY117      0.2638
     27  O          8.2980   26.9750   65.0890 O.2   117  GLY117     -0.2714
     28  N         10.0570   28.3200   65.3940 N.am  118  GLU118     -0.1977
     29  CA        10.9940   27.4190   64.7390 C.3   118  GLU118      0.1602
     30  C         10.9380   25.9960   65.3160 C.2   118  GLU118      0.2287
     31  O         10.9710   25.0350   64.5480 O.2   118  GLU118     -0.2864
     32  CB        12.3950   28.0130   64.8150 C.3   118  GLU118      0.0415
     33  CG        13.4520   27.2030   64.0840 C.3   118  GLU118      0.1163
     34  CD        14.8420   27.7990   64.1710 C.2   118  GLU118      0.3649
     35  OE1       15.1120   28.6910   65.0290 O.co2 118  GLU118     -0.2457
     36  OE2       15.6800   27.3860   63.3510 O.co2 118  GLU118     -0.2457
     37  N         -4.0180   35.3160   61.8570 N.3   161  LYS161     -0.1245
     38  CA        -2.5980   35.4880   62.1820 C.3   161  LYS161      0.1561
     39  C         -2.3010   36.8460   62.8540 C.2   161  LYS161      0.2260
     40  O         -1.4280   36.9110   63.7130 O.2   161  LYS161     -0.2867
     41  CB        -1.7140   35.2780   60.9480 C.3   161  LYS161      0.0271
     42  CG        -0.2060   35.4070   61.2000 C.3   161  LYS161      0.0035
     43  CD         0.3670   34.3950   62.2030 C.3   161  LYS161      0.0206
     44  CE         1.8950   34.3780   62.1630 C.3   161  LYS161      0.1093
     45  NZ         2.4900   33.5760   63.2840 N.3   161  LYS161     -0.1314
     46  N         -3.2200   36.2620   66.3040 N.3   164  ASN164     -0.1225
     47  CA        -2.1570   35.4090   66.8190 C.3   164  ASN164      0.1785
     48  C         -0.9320   36.2040   67.2400 C.2   164  ASN164      0.2597
     49  O         -0.3850   35.9930   68.3190 O.2   164  ASN164     -0.2718
     50  CB        -1.7620   34.3870   65.7380 C.3   164  ASN164      0.1169
     51  CG        -0.8460   33.3070   66.2500 C.2   164  ASN164      0.2627
     52  OD1        0.4000   33.4900   66.3650 O.2   164  ASN164     -0.2716
     53  ND2       -1.4210   32.1610   66.5260 N.am  164  ASN164     -0.0877
     54  N         -0.5230   37.1380   66.3910 N.am  165  GLN165     -0.1979
     55  CA         0.7090   37.8810   66.6060 C.3   165  GLN165      0.1601
     56  C          0.5600   38.9360   67.6800 C.2   165  GLN165      0.2287
     57  O          1.5290   39.2750   68.3340 O.2   165  GLN165     -0.2864
     58  CB         1.1780   38.5140   65.2960 C.3   165  GLN165      0.0394
     59  CG         1.6850   37.4770   64.2590 C.3   165  GLN165      0.0908
     60  CD         2.7250   36.5330   64.8150 C.2   165  GLN165      0.2608
     61  OE1        2.3950   35.5570   65.4900 O.2   165  GLN165     -0.2717
     62  NE2        3.9930   36.8400   64.5580 N.am  165  GLN165     -0.0878
     63  N          1.0560   36.6860   70.7410 N.3   168  VAL168     -0.1245
     64  CA         2.4360   36.2790   70.9410 C.3   168  VAL168      0.1561
     65  C          3.2780   37.4420   71.4710 C.2   168  VAL168      0.2260
     66  O          4.0460   37.2750   72.4260 O.2   168  VAL168     -0.2867
     67  CB         3.0360   35.6680   69.6680 C.3   168  VAL168      0.0252
     68  CG1        4.5200   35.3820   69.8550 C.3   168  VAL168      0.0019
     69  CG2        2.3020   34.3650   69.3000 C.3   168  VAL168      0.0019
     70  N         15.0810   31.6040   65.2850 N.3   218  GLY218     -0.1210
     71  CA        13.8440   32.0940   65.8780 C.3   218  GLY218      0.1956
     72  C         13.1150   33.0550   64.9510 C.2   218  GLY218      0.2611
     73  O         13.2020   32.9530   63.7180 O.2   218  GLY218     -0.2717
     74  N         12.4390   34.0260   65.5460 N.am  219  PHE219     -0.1976
     75  CA        11.6140   34.9950   64.8220 C.3   219  PHE219      0.1639
     76  C         12.0980   36.4100   65.1110 C.2   219  PHE219      0.2290
     77  O         11.9590   36.9100   66.2260 O.2   219  PHE219     -0.2864
     78  CB        10.1530   34.8440   65.2320 C.3   219  PHE219      0.0560
     79  CG         9.1960   35.6600   64.3830 C.ar  219  PHE219     -0.0200
     80  CD1        9.0450   35.3910   63.0290 C.ar  219  PHE219     -0.0042
     81  CD2        8.4200   36.6750   64.9430 C.ar  219  PHE219     -0.0042
     82  CE1        8.1580   36.1000   62.2470 C.ar  219  PHE219     -0.0003
     83  CE2        7.5140   37.3980   64.1540 C.ar  219  PHE219     -0.0003
     84  CZ         7.3920   37.1300   62.8140 C.ar  219  PHE219     -0.0000
     85  N          4.3360   42.5090   61.4880 N.3   227  ASP227     -0.1239
     86  CA         3.0530   41.9130   61.8710 C.3   227  ASP227      0.1674
     87  C          2.2430   42.8730   62.7490 C.2   227  ASP227      0.2266
     88  O          1.0390   43.0050   62.5560 O.2   227  ASP227     -0.2867
     89  CB         3.2230   40.5920   62.6110 C.3   227  ASP227      0.1410
     90  CG         3.6800   39.4600   61.7180 C.2   227  ASP227      0.3668
     91  OD1        3.4710   39.5100   60.4700 O.co2 227  ASP227     -0.2456
     92  OD2        4.2800   38.4880   62.2170 O.co2 227  ASP227     -0.2456
     93  N         12.4180   37.4500   68.9830 N.3   262  HIS262     -0.1241
     94  CA        11.5080   38.3090   69.7390 C.3   262  HIS262      0.1621
     95  C         11.4840   38.1270   71.2680 C.2   262  HIS262      0.2264
     96  O         10.9630   38.9980   71.9670 O.2   262  HIS262     -0.2867
     97  CB        10.0870   38.3700   69.1520 C.3   262  HIS262      0.0745
     98  CG         9.3820   37.0640   68.9270 C.ar  262  HIS262      0.0817
     99  ND1        9.9250   35.8020   69.0870 N.ar  262  HIS262     -0.2268
    100  CD2        8.1170   36.8680   68.4890 C.ar  262  HIS262      0.1154
    101  CE1        9.0110   34.8890   68.7740 C.ar  262  HIS262      0.1986
    102  NE2        7.9050   35.5150   68.4180 N.ar  262  HIS262     -0.2212
@<TRIPOS>BOND
     1     1     2    1
     2     4     3    2
     3     3     2    1
     4     2     5    1
     5     5     6    1
     6    12    11    1
     7     7     8    1
     8    11    13    1
     9    11     8    1
    10    91    90   ar
    11     8     9    1
    12    41    42    1
    13    41    38    1
    14    42    43    1
    15    85    86    1
    16    90    92   ar
    17    90    89    1
    18    37    38    1
    19    86    89    1
    20    86    87    1
    21     9    10    2
    22     9    14   am
    23    44    43    1
    24    44    45    1
    25    38    39    1
    26    82    84   ar
    27    82    80   ar
    28    88    87    2
    29    84    83   ar
    30    39    40    2
    31    14    15    1
    32    80    79   ar
    33    36    34   ar
    34    73    72    2
    35    33    34    1
    36    33    32    1
    37    83    81   ar
    38    34    35   ar
    39    59    60    1
    40    59    58    1
    41    15    16    1
    42    15    18    1
    43    79    81   ar
    44    79    78    1
    45    31    30    2
    46    62    60   am
    47    29    32    1
    48    29    30    1
    49    29    28    1
    50    60    61    2
    51    75    76    1
    52    75    78    1
    53    75    74    1
    54    72    74   am
    55    72    71    1
    56    17    16    2
    57    16    20   am
    58    27    26    2
    59    76    77    2
    60    18    19    1
    61    70    71    1
    62    58    55    1
    63    28    26   am
    64    26    25    1
    65    20    21    1
    66    50    51    1
    67    50    47    1
    68    24    25    1
    69    24    22   am
    70    51    52    2
    71    51    53   am
    72    46    47    1
    73    54    55    1
    74    54    48   am
    75    55    56    1
    76    21    22    1
    77    47    48    1
    78    22    23    2
    79    48    49    2
    80    56    57    2
    81   102   100   ar
    82   102   101   ar
    83   100    98   ar
    84   101    99   ar
    85    98    99   ar
    86    98    97    1
    87    93    94    1
    88    97    94    1
    89    69    67    1
    90    67    68    1
    91    67    64    1
    92    94    95    1
    93    63    64    1
    94    64    65    1
    95    95    96    2
    96    65    66    2
