@<TRIPOS>MOLECULE
tmp/1vpeA00.pdb
 196 186 0 0 0
SMALL
GASTEIGER

@<TRIPOS>ATOM
      1  N         30.1300    9.3390   17.5680 N.3    35  ARG35      -0.1245
      2  CA        28.7290    9.7230   17.7570 C.3    35  ARG35       0.1563
      3  C         27.7560    8.8380   16.9800 C.2    35  ARG35       0.2260
      4  O         26.6540    8.5790   17.4390 O.2    35  ARG35      -0.2867
      5  CB        28.5090   11.1650   17.3270 C.3    35  ARG35       0.0307
      6  CG        29.0000   12.1200   18.3490 C.3    35  ARG35       0.0489
      7  CD        28.7200   13.5630   18.0360 C.3    35  ARG35       0.2205
      8  NE        29.0940   14.3270   19.2270 N.pl3  35  ARG35      -0.0865
      9  CZ        28.7920   15.5970   19.4610 C.cat  35  ARG35       0.5346
     10  NH1       28.1090   16.2920   18.5740 N.pl3  35  ARG35       0.1354
     11  NH2       29.1280   16.1520   20.6200 N.pl3  35  ARG35       0.1354
     12  N         40.4230   22.7390   26.1180 N.3   194  GLY194     -0.1210
     13  CA        39.8100   22.9970   24.8260 C.3   194  GLY194      0.1956
     14  C         39.8950   24.4140   24.3260 C.2   194  GLY194      0.2612
     15  O         40.4600   25.2750   24.9850 O.2   194  GLY194     -0.2717
     16  N         39.3180   24.6400   23.1500 N.am  195  ALA195     -0.1965
     17  CA        39.3290   25.9280   22.4640 C.3   195  ALA195      0.1728
     18  C         37.9930   26.6250   22.4620 C.2   195  ALA195      0.2616
     19  O         37.9350   27.8340   22.2630 O.2   195  ALA195     -0.2715
     20  CB        39.7810   25.7360   21.0270 C.3   195  ALA195      0.0334
     21  N         36.9210   25.8520   22.6040 N.am  196  LYS196     -0.1977
     22  CA        35.5550   26.3740   22.6260 C.3   196  LYS196      0.1596
     23  C         35.3330   27.1020   23.9760 C.2   196  LYS196      0.2287
     24  O         34.6200   26.6370   24.8620 O.2   196  LYS196     -0.2864
     25  CB        34.5870   25.1980   22.4470 C.3   196  LYS196      0.0298
     26  CG        33.2000   25.5040   21.9010 C.3   196  LYS196      0.0038
     27  CD        32.4330   24.1760   21.7530 C.3   196  LYS196      0.0206
     28  CE        30.9780   24.3560   21.3470 C.3   196  LYS196      0.1093
     29  NZ        30.2720   23.0450   21.3330 N.3   196  LYS196     -0.1314
     30  N         31.9790   27.3260   27.1300 N.3   200  LYS200     -0.1245
     31  CA        32.2590   26.7310   28.4590 C.3   200  LYS200      0.1561
     32  C         32.4040   27.6640   29.6770 C.2   200  LYS200      0.2260
     33  O         32.0580   27.2890   30.8010 O.2   200  LYS200     -0.2867
     34  CB        33.5420   25.8780   28.4170 C.3   200  LYS200      0.0271
     35  CG        33.5780   24.7120   27.4430 C.3   200  LYS200      0.0035
     36  CD        34.9840   24.1140   27.4280 C.3   200  LYS200      0.0206
     37  CE        35.3790   23.6040   26.0450 C.3   200  LYS200      0.1093
     38  NZ        35.1400   22.1580   25.9150 N.3   200  LYS200     -0.1314
     39  N         44.2110   24.0060   28.1310 N.3   218  GLY218     -0.1210
     40  CA        43.8010   24.2490   26.7590 C.3   218  GLY218      0.1956
     41  C         43.9720   25.7060   26.3840 C.2   218  GLY218      0.2611
     42  O         44.8300   26.3910   26.9320 O.2   218  GLY218     -0.2717
     43  N         43.1620   26.2010   25.4600 N.am  219  ALA219     -0.1979
     44  CA        43.2770   27.5970   25.0560 C.3   219  ALA219      0.1597
     45  C         42.5710   28.4760   26.0730 C.2   219  ALA219      0.2287
     46  O         42.7510   29.6850   26.0990 O.2   219  ALA219     -0.2864
     47  CB        42.6570   27.8080   23.6790 C.3   219  ALA219      0.0319
     48  N         42.9900   28.6530   29.1960 N.3   221  MET221     -0.1182
     49  CA        43.9230   29.2200   30.1750 C.3   221  MET221      0.1917
     50  C         44.3030   30.6760   29.8880 C.2   221  MET221      0.2634
     51  O         44.4110   31.4700   30.8210 O.2   221  MET221     -0.2714
     52  CB        45.1970   28.3630   30.3000 C.2   221  MET221      0.0083
     53  CG        46.1630   28.4500   29.1050 C.2   221  MET221      0.0282
     54  SD        47.4090   27.1370   29.0110 S.3   221  MET221     -0.1125
     55  CE        48.8980   27.9570   29.6460 C.3   221  MET221      0.0742
     56  N         44.3870   31.0450   28.6060 N.am  222  PHE222     -0.1973
     57  CA        44.7900   32.3950   28.1860 C.3   222  PHE222      0.1639
     58  C         43.7780   33.5320   28.3790 C.2   222  PHE222      0.2290
     59  O         44.1650   34.6920   28.5040 O.2   222  PHE222     -0.2864
     60  CB        45.3390   32.3740   26.7460 C.3   222  PHE222      0.0560
     61  CG        46.4240   31.3450   26.5220 C.ar  222  PHE222     -0.0200
     62  CD1       47.6410   31.4340   27.1940 C.ar  222  PHE222     -0.0042
     63  CD2       46.2110   30.2590   25.6730 C.ar  222  PHE222     -0.0042
     64  CE1       48.6350   30.4450   27.0280 C.ar  222  PHE222     -0.0003
     65  CE2       47.1910   29.2720   25.5010 C.ar  222  PHE222     -0.0003
     66  CZ        48.4030   29.3640   26.1810 C.ar  222  PHE222     -0.0000
     67  N         45.6990   32.2730   21.6760 N.3   236  ARG236     -0.1245
     68  CA        44.2750   32.4760   21.4400 C.3   236  ARG236      0.1563
     69  C         43.5470   32.9160   22.7160 C.2   236  ARG236      0.2260
     70  O         43.5020   32.1760   23.6990 O.2   236  ARG236     -0.2867
     71  CB        43.6610   31.1750   20.8850 C.3   236  ARG236      0.0307
     72  CG        42.1490   31.2080   20.6010 C.3   236  ARG236      0.0489
     73  CD        41.3220   30.8090   21.8200 C.3   236  ARG236      0.2205
     74  NE        39.8870   30.9960   21.6110 N.pl3 236  ARG236     -0.0865
     75  CZ        39.1310   30.2290   20.8300 C.cat 236  ARG236      0.5346
     76  NH1       39.6630   29.2080   20.1700 N.pl3 236  ARG236      0.1354
     77  NH2       37.8360   30.4830   20.7070 N.pl3 236  ARG236      0.1354
     78  N         52.2100   26.1940   14.4750 N.3   271  ILE271     -0.1245
     79  CA        51.3750   25.1020   14.9420 C.3   271  ILE271      0.1561
     80  C         51.4050   23.9420   13.9180 C.2   271  ILE271      0.2260
     81  O         50.4520   23.6910   13.1700 O.2   271  ILE271     -0.2867
     82  CB        49.9290   25.6120   15.3110 C.3   271  ILE271      0.0252
     83  CG1       49.0510   24.4580   15.7840 C.3   271  ILE271      0.0019
     84  CG2       49.2920   26.3880   14.1570 C.3   271  ILE271      0.0019
     85  CD1       47.6940   24.9020   16.2590 C.3   271  ILE271      0.0001
     86  N         51.1170   29.7010   23.1580 N.3   292  GLY292     -0.1210
     87  CA        51.0300   28.6340   24.1420 C.3   292  GLY292      0.1956
     88  C         50.2180   27.5600   23.4370 C.2   292  GLY292      0.2612
     89  O         49.1390   27.8440   22.8870 O.2   292  GLY292     -0.2717
     90  N         50.7540   26.3480   23.3950 N.am  293  LEU293     -0.1965
     91  CA        50.0850   25.2620   22.7030 C.3   293  LEU293      0.1728
     92  C         49.9150   23.9750   23.5360 C.2   293  LEU293      0.2616
     93  O         49.3480   22.9910   23.0580 O.2   293  LEU293     -0.2715
     94  CB        50.8140   24.9850   21.3780 C.3   293  LEU293      0.0311
     95  CG        50.8630   26.0760   20.3020 C.3   293  LEU293      0.0022
     96  CD1       51.7920   25.6380   19.1770 C.3   293  LEU293      0.0001
     97  CD2       49.4870   26.3600   19.7420 C.3   293  LEU293      0.0001
     98  N         50.4220   23.9710   24.7640 N.am  294  ASP294     -0.1971
     99  CA        50.2780   22.8240   25.6530 C.3   294  ASP294      0.1709
    100  C         50.7580   23.2680   27.0190 C.2   294  ASP294      0.2293
    101  O         51.5360   24.2050   27.1270 O.2   294  ASP294     -0.2864
    102  CB        51.0960   21.6240   25.1640 C.3   294  ASP294      0.1436
    103  CG        50.8120   20.3520   25.9600 C.2   294  ASP294      0.3671
    104  OD1       49.8460   20.3050   26.7460 O.co2 294  ASP294     -0.2456
    105  OD2       51.5580   19.3710   25.8010 O.co2 294  ASP294     -0.2456
    106  N         36.6260   18.0170   30.6460 N.3   316  ASN316     -0.1240
    107  CA        36.1650   18.4050   29.3230 C.3   316  ASN316      0.1653
    108  C         37.1480   19.3950   28.7190 C.2   316  ASN316      0.2266
    109  O         37.2800   20.5100   29.2220 O.2   316  ASN316     -0.2867
    110  CB        34.7690   19.0440   29.3720 C.3   316  ASN316      0.1155
    111  CG        34.2910   19.5530   27.9930 C.2   316  ASN316      0.2627
    112  OD1       35.0780   19.6980   27.0540 O.2   316  ASN316     -0.2716
    113  ND2       32.9980   19.8440   27.8820 N.am  316  ASN316     -0.0877
    114  N         40.8200   19.2990   25.7660 N.3   318  PRO318     -0.2102
    115  CA        42.2280   18.8910   25.6990 C.3   318  PRO318      0.1504
    116  C         43.1060   19.9900   26.3250 C.2   318  PRO318      0.2576
    117  O         42.8020   21.1790   26.1890 O.2   318  PRO318     -0.2718
    118  CB        42.4860   18.8010   24.1880 C.3   318  PRO318      0.0282
    119  CG        41.1530   18.5010   23.6310 C.3   318  PRO318      0.0208
    120  CD        40.2480   19.4010   24.4130 C.3   318  PRO318      0.0893
    121  N         44.1590   19.5800   27.0340 N.am  319  MET319     -0.1966
    122  CA        45.0960   20.5070   27.6790 C.3   319  MET319      0.1736
    123  C         45.8920   21.3100   26.6650 C.2   319  MET319      0.2617
    124  O         46.2880   22.4380   26.9340 O.2   319  MET319     -0.2715
    125  CB        46.0590   19.7450   28.5850 C.3   319  MET319      0.0427
    126  CG        45.3940   19.0840   29.7780 C.3   319  MET319      0.0599
    127  SD        44.7240   20.2570   30.9750 S.3   319  MET319     -0.1393
    128  CE        43.0470   20.3630   30.4530 C.3   319  MET319      0.0692
    129  N         46.1370   20.7010   25.5120 N.am  320  GLY320     -0.1940
    130  CA        46.8690   21.3520   24.4490 C.3   320  GLY320      0.2014
    131  C         46.4060   20.8090   23.1130 C.2   320  GLY320      0.2639
    132  O         45.4150   20.0730   23.0340 O.2   320  GLY320     -0.2714
    133  N         47.0950   21.1970   22.0500 N.am  321  VAL321     -0.1963
    134  CA        46.7540   20.7360   20.7110 C.3   321  VAL321      0.1727
    135  C         47.2850   19.3080   20.5740 C.2   321  VAL321      0.2616
    136  O         48.2600   19.0570   19.8770 O.2   321  VAL321     -0.2715
    137  CB        47.3590   21.6750   19.6250 C.3   321  VAL321      0.0290
    138  CG1       46.9980   21.2020   18.2440 C.3   321  VAL321      0.0023
    139  CG2       46.8600   23.0960   19.8240 C.3   321  VAL321      0.0023
    140  N         46.5970   18.3740   21.2190 N.am  322  PHE322     -0.1960
    141  CA        46.9660   16.9610   21.2250 C.3   322  PHE322      0.1771
    142  C         47.0790   16.2880   19.8240 C.2   322  PHE322      0.2619
    143  O         47.7120   15.2270   19.6910 O.2   322  PHE322     -0.2715
    144  CB        45.9800   16.1840   22.1170 C.3   322  PHE322      0.0574
    145  CG        44.6620   15.9050   21.4500 C.ar  322  PHE322     -0.0200
    146  CD1       43.7160   16.9070   21.3070 C.ar  322  PHE322     -0.0042
    147  CD2       44.4100   14.6630   20.8820 C.ar  322  PHE322     -0.0042
    148  CE1       42.5350   16.6870   20.5990 C.ar  322  PHE322     -0.0003
    149  CE2       43.2320   14.4350   20.1730 C.ar  322  PHE322     -0.0003
    150  CZ        42.2950   15.4500   20.0320 C.ar  322  PHE322     -0.0000
    151  N         46.4450   16.8790   18.8070 N.am  323  GLU323     -0.1977
    152  CA        46.4820   16.3510   17.4370 C.3   323  GLU323      0.1602
    153  C         47.9260   16.2010   16.9330 C.2   323  GLU323      0.2287
    154  O         48.2720   15.2140   16.2680 O.2   323  GLU323     -0.2864
    155  CB        45.6970   17.2520   16.4720 C.3   323  GLU323      0.0415
    156  CG        44.1820   17.2990   16.7180 C.3   323  GLU323      0.1163
    157  CD        43.7440   18.4120   17.6740 C.2   323  GLU323      0.3649
    158  OE1       44.5200   18.7770   18.5780 O.co2 323  GLU323     -0.2457
    159  OE2       42.6160   18.9220   17.5240 O.co2 323  GLU323     -0.2457
    160  N         33.0660   15.5000   25.9380 N.3   352  GLY352     -0.1210
    161  CA        33.5570   16.3900   24.9140 C.3   352  GLY352      0.1956
    162  C         34.0500   15.6190   23.7240 C.2   352  GLY352      0.2612
    163  O         34.7030   14.5770   23.8690 O.2   352  GLY352     -0.2717
    164  N         33.7380   16.1390   22.5430 N.am  353  GLY353     -0.1942
    165  CA        34.1610   15.5100   21.3060 C.3   353  GLY353      0.2014
    166  C         35.6410   15.1450   21.2080 C.2   353  GLY353      0.2639
    167  O         35.9770   13.9670   21.0690 O.2   353  GLY353     -0.2714
    168  N         36.5290   16.1380   21.2800 N.am  354  ASP354     -0.1957
    169  CA        37.9670   15.9020   21.1890 C.3   354  ASP354      0.1840
    170  C         38.5700   15.2400   22.4060 C.2   354  ASP354      0.2622
    171  O         39.5790   14.5310   22.2950 O.2   354  ASP354     -0.2715
    172  CB        38.6840   17.2030   20.8630 C.3   354  ASP354      0.1450
    173  CG        38.4120   17.6540   19.4440 C.2   354  ASP354      0.3671
    174  OD1       38.6290   16.8300   18.5290 O.co2 354  ASP354     -0.2456
    175  OD2       37.9440   18.7960   19.2370 O.co2 354  ASP354     -0.2456
    176  N         37.9630   15.4660   23.5690 N.am  355  SER355     -0.1950
    177  CA        38.4440   14.8220   24.7780 C.3   355  SER355      0.1924
    178  C         38.2590   13.3090   24.6000 C.2   355  SER355      0.2314
    179  O         39.1600   12.5260   24.9110 O.2   355  SER355     -0.2863
    180  CB        37.6830   15.3310   25.9970 C.3   355  SER355      0.2116
    181  OG        37.6350   16.7460   25.9630 O.3   355  SER355     -0.2180
    182  N         30.6870   12.4080   24.4180 N.3   373  THR373     -0.1218
    183  CA        31.0920   13.4410   23.4400 C.3   373  THR373      0.1862
    184  C         30.1740   14.6410   23.5920 C.2   373  THR373      0.2287
    185  O         30.5020   15.7500   23.1460 O.2   373  THR373     -0.2866
    186  CB        31.0680   12.9240   21.9980 C.3   373  THR373      0.1770
    187  OG1       29.8080   12.3000   21.7340 O.3   373  THR373     -0.2211
    188  CG2       32.1960   11.9290   21.7710 C.3   373  THR373      0.0375
    189  N         29.6620   16.9890   25.1400 N.3   375  GLY375     -0.1210
    190  CA        30.4800   17.8190   25.9600 C.3   375  GLY375      0.1956
    191  C         29.7410   18.9360   26.6610 C.2   375  GLY375      0.2612
    192  O         29.7340   19.0130   27.8920 O.2   375  GLY375     -0.2717
    193  N         29.1170   19.8100   25.8850 N.am  376  GLY376     -0.1956
    194  CA        28.3530   20.9110   26.4610 C.3   376  GLY376      0.1869
    195  C         27.1190   20.4560   27.2510 C.2   376  GLY376      0.2309
    196  O         26.8100   21.0010   28.3260 O.2   376  GLY376     -0.2863
@<TRIPOS>BOND
     1    81    80    2
     2    80    79    1
     3    84    82    1
     4    78    79    1
     5    79    82    1
     6    82    83    1
     7    83    85    1
     8   154   153    2
     9   155   156    1
    10   155   152    1
    11   156   157    1
    12   153   152    1
    13     3     4    2
    14     3     2    1
    15     5     2    1
    16     5     6    1
    17   152   151    1
    18   159   157   ar
    19     1     2    1
    20   157   158   ar
    21     7     6    1
    22     7     8    1
    23   138   137    1
    24   174   173   ar
    25    10     9    1
    26   151   142   am
    27    96    95    1
    28     8     9    2
    29   175   173   ar
    30   173   172    1
    31     9    11    1
    32   137   139    1
    33   137   134    1
    34   143   142    2
    35    97    95    1
    36   142   141    1
    37   136   135    2
    38   150   149   ar
    39   150   148   ar
    40    76    75    1
    41   149   147   ar
    42    95    94    1
    43   135   134    1
    44   135   140   am
    45   148   146   ar
    46    72    71    1
    47    72    73    1
    48    77    75    1
    49   134   133    1
    50    75    74    2
    51   172   169    1
    52   147   145   ar
    53    71    68    1
    54    20    17    1
    55   167   166    2
    56   169   168    1
    57   169   170    1
    58   166   168   am
    59   166   165    1
    60   140   141    1
    61   141   144    1
    62   165   164    1
    63   146   145   ar
    64    29    28    1
    65    28    27    1
    66    94    91    1
    67    68    67    1
    68    68    69    1
    69   145   144    1
    70    74    73    1
    71   187   186    1
    72    27    26    1
    73   188   186    1
    74    26    25    1
    75   186   183    1
    76   133   131   am
    77    19    18    2
    78   171   170    2
    79   170   176   am
    80    25    22    1
    81    18    17    1
    82    18    21   am
    83    17    16    1
    84   164   162   am
    85    21    22    1
    86    22    23    1
    87    91    90    1
    88    91    92    1
    89    69    70    2
    90    89    88    2
    91   132   131    2
    92    93    92    2
    93   131   130    1
    94   185   184    2
    95    16    14   am
    96    86    87    1
    97    90    88   am
    98    88    87    1
    99   183   184    1
   100   183   182    1
   101    92    98   am
   102   176   177    1
   103   119   118    1
   104   119   120    1
   105    47    44    1
   106   162   163    2
   107   162   161    1
   108    23    24    2
   109   118   115    1
   110    14    13    1
   111    14    15    2
   112   120   114    1
   113   130   129    1
   114   178   177    1
   115   178   179    2
   116    98    99    1
   117   177   180    1
   118    13    12    1
   119   161   160    1
   120    44    43    1
   121    44    45    1
   122   189   190    1
   123   102    99    1
   124   102   103    1
   125    43    41   am
   126    65    63   ar
   127    65    66   ar
   128   129   123   am
   129    99   100    1
   130    63    61   ar
   131   115   114    1
   132   115   116    1
   133   105   103   ar
   134   193   194    1
   135   193   191   am
   136    38    37    1
   137   103   104   ar
   138   190   191    1
   139   181   180    1
   140    37    36    1
   141    45    46    2
   142    66    64   ar
   143   117   116    2
   144   116   121   am
   145    41    40    1
   146    41    42    2
   147   194   195    1
   148    61    60    1
   149    61    62   ar
   150   191   192    2
   151   123   124    2
   152   123   122    1
   153    60    57    1
   154    40    39    1
   155   100   101    2
   156    64    62   ar
   157   121   122    1
   158   112   111    2
   159    30    31    1
   160   195   196    2
   161    36    35    1
   162    35    34    1
   163   122   125    1
   164   113   111   am
   165   111   110    1
   166    57    58    1
   167    57    56    1
   168    58    59    2
   169    34    31    1
   170    31    32    1
   171   125   126    1
   172    56    50   am
   173   108   109    2
   174   108   107    1
   175    54    53    1
   176    54    55    1
   177    53    52    2
   178    48    49    1
   179   107   110    1
   180   107   106    1
   181    32    33    2
   182   126   127    1
   183    50    49    1
   184    50    51    2
   185    49    52    1
   186   128   127    1
