@<TRIPOS>MOLECULE
tmp/1vpeA01.pdb
 122 114 0 0 0
SMALL
GASTEIGER

@<TRIPOS>ATOM
      1  N         22.3570   12.5860   17.5710 N.3    20  ASP20      -0.1239
      2  CA        23.3800   13.6100   17.4270 C.3    20  ASP20       0.1674
      3  C         24.4580   13.0260   16.5020 C.2    20  ASP20       0.2266
      4  O         25.2730   12.2000   16.9070 O.2    20  ASP20      -0.2867
      5  CB        23.9800   14.0560   18.7750 C.3    20  ASP20       0.1410
      6  CG        24.8820   15.3160   18.6400 C.2    20  ASP20       0.3668
      7  OD1       25.6730   15.3920   17.6830 O.co2  20  ASP20      -0.2456
      8  OD2       24.7840   16.2410   19.4740 O.co2  20  ASP20      -0.2456
      9  N         26.4210   15.0870   14.8200 N.3    22  ASN22      -0.1240
     10  CA        27.2110   16.2960   14.5920 C.3    22  ASN22       0.1653
     11  C         28.6660   15.8850   14.6890 C.2    22  ASN22       0.2266
     12  O         29.3120   16.1030   15.7140 O.2    22  ASN22      -0.2867
     13  CB        26.8820   17.3350   15.6580 C.3    22  ASN22       0.1155
     14  CG        27.5910   18.6580   15.4350 C.2    22  ASN22       0.2627
     15  OD1       27.9940   19.0010   14.3210 O.2    22  ASN22      -0.2716
     16  ND2       27.7180   19.4220   16.4930 N.am   22  ASN22      -0.0877
     17  N         30.1300    9.3390   17.5680 N.3    35  ARG35      -0.1245
     18  CA        28.7290    9.7230   17.7570 C.3    35  ARG35       0.1563
     19  C         27.7560    8.8380   16.9800 C.2    35  ARG35       0.2260
     20  O         26.6540    8.5790   17.4390 O.2    35  ARG35      -0.2867
     21  CB        28.5090   11.1650   17.3270 C.3    35  ARG35       0.0307
     22  CG        29.0000   12.1200   18.3490 C.3    35  ARG35       0.0489
     23  CD        28.7200   13.5630   18.0360 C.3    35  ARG35       0.2205
     24  NE        29.0940   14.3270   19.2270 N.pl3  35  ARG35      -0.0865
     25  CZ        28.7920   15.5970   19.4610 C.cat  35  ARG35       0.5346
     26  NH1       28.1090   16.2920   18.5740 N.pl3  35  ARG35       0.1354
     27  NH2       29.1280   16.1520   20.6200 N.pl3  35  ARG35       0.1354
     28  N         21.3830   17.5710   13.1870 N.3    58  HIS58      -0.1241
     29  CA        22.0430   18.7950   12.7200 C.3    58  HIS58       0.1621
     30  C         23.5410   18.4370   12.4690 C.2    58  HIS58       0.2264
     31  O         23.9820   17.3310   12.7980 O.2    58  HIS58      -0.2867
     32  CB        21.9420   19.9120   13.7720 C.3    58  HIS58       0.0745
     33  CG        22.8850   19.7580   14.9220 C.ar   58  HIS58       0.0817
     34  ND1       22.6170   18.9430   16.0010 N.ar   58  HIS58      -0.2268
     35  CD2       24.0690   20.3630   15.1920 C.ar   58  HIS58       0.1154
     36  CE1       23.5870   19.0600   16.8930 C.ar   58  HIS58       0.1986
     37  NE2       24.4790   19.9180   16.4270 N.ar   58  HIS58      -0.2212
     38  N         27.1060   20.9560   12.5310 N.3    60  GLY60      -0.1210
     39  CA        27.6540   22.2910   12.6240 C.3    60  GLY60       0.1956
     40  C         26.5750   23.3240   12.8700 C.2    60  GLY60       0.2611
     41  O         25.4930   23.0260   13.3970 O.2    60  GLY60      -0.2717
     42  N         26.8970   24.5590   12.5090 N.am   61  ARG61      -0.1979
     43  CA        25.9970   25.6870   12.6580 C.3    61  ARG61       0.1597
     44  C         25.8920   26.4770   11.3480 C.2    61  ARG61       0.2287
     45  O         26.5780   27.4720   11.1690 O.2    61  ARG61      -0.2864
     46  CB        26.4930   26.5950   13.7860 C.3    61  ARG61       0.0334
     47  CG        26.5720   25.8910   15.1320 C.3    61  ARG61       0.0492
     48  CD        27.2910   26.7150   16.1600 C.3    61  ARG61       0.2205
     49  NE        27.5020   25.9590   17.3860 N.pl3  61  ARG61      -0.0865
     50  CZ        27.8570   26.5010   18.5480 C.cat  61  ARG61       0.5346
     51  NH1       28.0430   27.8070   18.6280 N.pl3  61  ARG61       0.1354
     52  NH2       28.0190   25.7480   19.6370 N.pl3  61  ARG61       0.1354
     53  N         19.3660   22.1070   10.6780 N.3   117  ARG117     -0.1245
     54  CA        19.7020   23.5200   10.7510 C.3   117  ARG117      0.1563
     55  C         19.7020   24.2780    9.4070 C.2   117  ARG117      0.2260
     56  O         19.9840   25.4780    9.3660 O.2   117  ARG117     -0.2867
     57  CB        20.9870   23.7220   11.5480 C.3   117  ARG117      0.0307
     58  CG        20.8170   23.2860   12.9850 C.3   117  ARG117      0.0489
     59  CD        22.0100   23.6210   13.8440 C.3   117  ARG117      0.2205
     60  NE        21.8140   23.1460   15.2130 N.pl3 117  ARG117     -0.0865
     61  CZ        22.7360   23.1600   16.1750 C.cat 117  ARG117      0.5346
     62  NH1       23.9610   23.6300   15.9600 N.pl3 117  ARG117      0.1354
     63  NH2       22.4300   22.6690   17.3630 N.pl3 117  ARG117      0.1354
     64  N         23.7910   14.7340   23.2510 N.3   146  GLY146     -0.1210
     65  CA        24.6640   15.8640   22.9830 C.3   146  GLY146      0.1956
     66  C         23.9580   17.1660   22.6650 C.2   146  GLY146      0.2612
     67  O         24.5420   18.2520   22.7740 O.2   146  GLY146     -0.2717
     68  N         22.6910   17.0730   22.2900 N.am  147  THR147     -0.1952
     69  CA        21.9190   18.2620   21.9690 C.3   147  THR147      0.1897
     70  C         20.8260   18.5080   23.0280 C.2   147  THR147      0.2313
     71  O         20.0620   19.4600   22.9100 O.2   147  THR147     -0.2863
     72  CB        21.2650   18.1060   20.5720 C.3   147  THR147      0.1794
     73  OG1       22.2230   17.5510   19.6700 O.3   147  THR147     -0.2208
     74  CG2       20.8280   19.4420   20.0170 C.3   147  THR147      0.0378
     75  N         20.7190   19.9390   25.7480 N.3   149  HIS149     -0.1226
     76  CA        20.7690   21.2820   26.3250 C.3   149  HIS149      0.1752
     77  C         20.1800   22.3390   25.3650 C.2   149  HIS149      0.2595
     78  O         20.1100   23.5230   25.6810 O.2   149  HIS149     -0.2718
     79  CB        22.2270   21.6230   26.7280 C.3   149  HIS149      0.0759
     80  CG        23.2130   21.5300   25.6000 C.ar  149  HIS149      0.0818
     81  ND1       24.1020   22.5380   25.3040 N.ar  149  HIS149     -0.2268
     82  CD2       23.4250   20.5610   24.6770 C.ar  149  HIS149      0.1154
     83  CE1       24.8170   22.1960   24.2470 C.ar  149  HIS149      0.1986
     84  NE2       24.4250   21.0010   23.8490 N.ar  149  HIS149     -0.2212
     85  N         19.7740   21.9100   24.1800 N.am  150  ARG150     -0.1980
     86  CA        19.2240   22.8260   23.2040 C.3   150  ARG150      0.1597
     87  C         17.7410   22.5470   23.1030 C.2   150  ARG150      0.2287
     88  O         17.3210   21.3930   23.0370 O.2   150  ARG150     -0.2864
     89  CB        19.8520   22.6040   21.8160 C.3   150  ARG150      0.0334
     90  CG        21.3740   22.6700   21.7360 C.3   150  ARG150      0.0492
     91  CD        21.8940   24.0800   21.9250 C.3   150  ARG150      0.2205
     92  NE        23.3490   24.0780   21.9550 N.pl3 150  ARG150     -0.0865
     93  CZ        24.1020   25.0360   22.4900 C.cat 150  ARG150      0.5346
     94  NH1       23.5450   26.0990   23.0430 N.pl3 150  ARG150      0.1354
     95  NH2       25.4200   24.9030   22.5130 N.pl3 150  ARG150      0.1354
     96  N         15.3130   22.7740   20.6620 N.3   152  HIS152     -0.1241
     97  CA        15.0620   22.9380   19.2470 C.3   152  HIS152      0.1621
     98  C         13.8390   22.1920   18.7130 C.2   152  HIS152      0.2264
     99  O         13.2750   21.3350   19.3840 O.2   152  HIS152     -0.2867
    100  CB        16.3340   22.5720   18.4690 C.3   152  HIS152      0.0745
    101  CG        17.4540   23.5600   18.6550 C.ar  152  HIS152      0.0817
    102  ND1       18.7260   23.3560   18.1630 N.ar  152  HIS152     -0.2268
    103  CD2       17.4870   24.7560   19.2900 C.ar  152  HIS152      0.1154
    104  CE1       19.4930   24.3790   18.4890 C.ar  152  HIS152      0.1986
    105  NE2       18.7640   25.2420   19.1730 N.ar  152  HIS152     -0.2212
    106  N         36.9210   25.8520   22.6040 N.3   196  LYS196     -0.1245
    107  CA        35.5550   26.3740   22.6260 C.3   196  LYS196      0.1561
    108  C         35.3330   27.1020   23.9760 C.2   196  LYS196      0.2260
    109  O         34.6200   26.6370   24.8620 O.2   196  LYS196     -0.2867
    110  CB        34.5870   25.1980   22.4470 C.3   196  LYS196      0.0271
    111  CG        33.2000   25.5040   21.9010 C.3   196  LYS196      0.0035
    112  CD        32.4330   24.1760   21.7530 C.3   196  LYS196      0.0206
    113  CE        30.9780   24.3560   21.3470 C.3   196  LYS196      0.1093
    114  NZ        30.2720   23.0450   21.3330 N.3   196  LYS196     -0.1314
    115  N         29.6620   16.9890   25.1400 N.3   375  GLY375     -0.1210
    116  CA        30.4800   17.8190   25.9600 C.3   375  GLY375      0.1956
    117  C         29.7410   18.9360   26.6610 C.2   375  GLY375      0.2612
    118  O         29.7340   19.0130   27.8920 O.2   375  GLY375     -0.2717
    119  N         29.1170   19.8100   25.8850 N.am  376  GLY376     -0.1956
    120  CA        28.3530   20.9110   26.4610 C.3   376  GLY376      0.1869
    121  C         27.1190   20.4560   27.2510 C.2   376  GLY376      0.2309
    122  O         26.8100   21.0010   28.3260 O.2   376  GLY376     -0.2863
@<TRIPOS>BOND
     1    56    55    2
     2    55    54    1
     3    53    54    1
     4    54    57    1
     5    45    44    2
     6    44    43    1
     7    57    58    1
     8    30    29    1
     9    30    31    2
    10    42    43    1
    11    42    40   am
    12    38    39    1
    13    39    40    1
    14    43    46    1
    15    29    28    1
    16    29    32    1
    17    40    41    2
    18    58    59    1
    19    32    33    1
    20    46    47    1
    21    59    60    1
    22    15    14    2
    23    10    11    1
    24    10     9    1
    25    10    13    1
    26    11    12    2
    27    33    35   ar
    28    33    34   ar
    29    47    48    1
    30    35    37   ar
    31    60    61    2
    32    14    13    1
    33    14    16   am
    34    62    61    1
    35    34    36   ar
    36    48    49    1
    37    61    63    1
    38    37    36   ar
    39     3     4    2
    40     3     2    1
    41    19    20    2
    42    19    18    1
    43    21    18    1
    44    21    22    1
    45    49    50    2
    46     2     1    1
    47     2     5    1
    48    17    18    1
    49     7     6   ar
    50    23    22    1
    51    23    24    1
    52   102   104   ar
    53   102   101   ar
    54   100   101    1
    55   100    97    1
    56   104   105   ar
    57    50    51    1
    58    50    52    1
    59    26    25    1
    60     6     5    1
    61     6     8   ar
    62   101   103   ar
    63    98    97    1
    64    98    99    2
    65   105   103   ar
    66    24    25    2
    67    97    96    1
    68    25    27    1
    69    73    72    1
    70    74    72    1
    71    72    69    1
    72   114   113    1
    73   113   112    1
    74    90    89    1
    75    90    91    1
    76   112   111    1
    77    89    86    1
    78   111   110    1
    79    91    92    1
    80    92    93    2
    81    69    68    1
    82    69    70    1
    83    68    66   am
    84   110   107    1
    85    93    95    1
    86    93    94    1
    87   106   107    1
    88   107   108    1
    89    66    67    2
    90    66    65    1
    91    71    70    2
    92    65    64    1
    93    88    87    2
    94    87    86    1
    95    86    85    1
    96    84    83   ar
    97    84    82   ar
    98   108   109    2
    99    85    77   am
   100    83    81   ar
   101    82    80   ar
   102   115   116    1
   103    81    80   ar
   104    77    78    2
   105    77    76    1
   106    80    79    1
   107    75    76    1
   108   119   120    1
   109   119   117   am
   110   116   117    1
   111    76    79    1
   112   120   121    1
   113   117   118    2
   114   121   122    2
