@<TRIPOS>MOLECULE
tmp/1vpmB00.pdb
 78 74 0 0 0
SMALL
GASTEIGER

@<TRIPOS>ATOM
      1  N         24.2750   69.5090   25.7990 N.3    26  THR26      -0.1203
      2  CA        25.3450   69.6000   26.8090 C.3    26  THR26       0.1994
      3  C         25.1160   68.4930   27.7830 C.2    26  THR26       0.2617
      4  O         23.9850   68.1690   28.1240 O.2    26  THR26      -0.2717
      5  CB        25.2900   70.9450   27.5230 C.3    26  THR26       0.1784
      6  OG1       25.6240   71.9430   26.5650 O.3    26  THR26      -0.2211
      7  CG2       26.2370   71.0200   28.7030 C.3    26  THR26       0.0376
      8  N         26.1800   67.8620   28.2140 N.am   27  ILE27      -0.1979
      9  CA        26.0540   66.7860   29.1440 C.3    27  ILE27       0.1595
     10  C         25.4920   67.2850   30.4720 C.2    27  ILE27       0.2287
     11  O         25.8620   68.3570   30.9530 O.2    27  ILE27      -0.2864
     12  CB        27.3890   66.0430   29.3330 C.3    27  ILE27       0.0276
     13  CG1       27.1450   64.7060   30.0160 C.3    27  ILE27       0.0022
     14  CG2       28.4500   66.8870   30.1370 C.3    27  ILE27       0.0022
     15  CD1       28.3400   63.7790   29.9790 C.3    27  ILE27       0.0001
     16  N         25.2450   67.6190   34.3320 N.3    29  GLY29      -0.1225
     17  CA        26.1020   67.5330   35.4610 C.3    29  GLY29       0.1811
     18  C         25.9530   66.2310   36.1860 C.2    29  GLY29       0.2280
     19  O         26.9350   65.6270   36.5600 O.2    29  GLY29      -0.2866
     20  N         27.8450   63.2640   34.5990 N.3    32  VAL32      -0.1245
     21  CA        29.2410   63.3500   34.9120 C.3    32  VAL32       0.1561
     22  C         29.5130   62.8720   36.3350 C.2    32  VAL32       0.2260
     23  O         30.4870   62.1100   36.5930 O.2    32  VAL32      -0.2867
     24  CB        29.7940   64.7440   34.6940 C.3    32  VAL32       0.0252
     25  CG1       31.2810   64.7380   35.0120 C.3    32  VAL32       0.0019
     26  CG2       29.5830   65.2260   33.2710 C.3    32  VAL32       0.0019
     27  N         33.6210   71.3380   40.8710 N.3    60  ASP60      -0.1225
     28  CA        33.4950   72.5250   40.0540 C.3    60  ASP60       0.1805
     29  C         33.6580   72.1430   38.6090 C.2    60  ASP60       0.2598
     30  O         34.6440   71.5170   38.2290 O.2    60  ASP60      -0.2718
     31  CB        34.5080   73.5980   40.4550 C.3    60  ASP60       0.1424
     32  CG        34.2650   74.1340   41.8410 C.2    60  ASP60       0.3668
     33  OD1       33.2360   74.8050   42.0470 O.co2  60  ASP60      -0.2456
     34  OD2       35.1100   73.9420   42.7500 O.co2  60  ASP60      -0.2456
     35  N         32.6470   72.4100   37.7960 N.am   61  PHE61      -0.1962
     36  CA        32.6660   72.0530   36.3980 C.3    61  PHE61       0.1771
     37  C         33.2880   73.1840   35.6130 C.2    61  PHE61       0.2619
     38  O         32.7050   74.2580   35.4530 O.2    61  PHE61      -0.2715
     39  CB        31.2700   71.7080   35.8740 C.3    61  PHE61       0.0574
     40  CG        30.6940   70.4650   36.4930 C.ar   61  PHE61      -0.0200
     41  CD1       31.1240   69.2160   36.1020 C.ar   61  PHE61      -0.0042
     42  CD2       29.7250   70.5450   37.4870 C.ar   61  PHE61      -0.0042
     43  CE1       30.5840   68.0700   36.6910 C.ar   61  PHE61      -0.0003
     44  CE2       29.1970   69.3900   38.0660 C.ar   61  PHE61      -0.0003
     45  CZ        29.6340   68.1550   37.6500 C.ar   61  PHE61      -0.0000
     46  N         34.5110   72.9360   35.1570 N.am   62  LYS62      -0.1963
     47  CA        35.3200   73.9730   34.5120 C.3    62  LYS62       0.1728
     48  C         34.9550   74.1160   33.0570 C.2    62  LYS62       0.2617
     49  O         35.1610   75.1480   32.4820 O.2    62  LYS62      -0.2715
     50  CB        36.8170   73.6610   34.6440 C.3    62  LYS62       0.0311
     51  CG        37.2850   73.5540   36.0840 C.3    62  LYS62       0.0038
     52  CD        36.9090   74.7610   36.9490 C.3    62  LYS62       0.0206
     53  CE        37.6270   74.6710   38.2900 C.3    62  LYS62       0.1093
     54  NZ        38.9800   74.0990   38.1010 N.3    62  LYS62      -0.1314
     55  N         34.3950   73.0800   32.4690 N.am   63  SER63      -0.1936
     56  CA        33.9990   73.1280   31.0910 C.3    63  SER63       0.2055
     57  C         32.8950   72.1200   30.8670 C.2    63  SER63       0.2644
     58  O         32.5800   71.3110   31.7430 O.2    63  SER63      -0.2714
     59  CB        35.1940   72.8660   30.1800 C.3    63  SER63       0.2130
     60  OG        35.6830   71.5470   30.3420 O.3    63  SER63      -0.2179
     61  N         32.2550   72.2260   29.7130 N.am   64  SER64      -0.1935
     62  CA        31.1580   71.3620   29.3480 C.3    64  SER64       0.2055
     63  C         31.6720   70.2590   28.4420 C.2    64  SER64       0.2642
     64  O         32.8380   70.2710   27.9960 O.2    64  SER64      -0.2714
     65  CB        30.1190   72.1810   28.5930 C.3    64  SER64       0.2130
     66  OG        30.7650   72.9900   27.6090 O.3    64  SER64      -0.2179
     67  N         30.8120   69.2920   28.1900 N.am   65  ALA65      -0.1977
     68  CA        31.0040   68.3640   27.1110 C.3    65  ALA65       0.1597
     69  C         29.7230   68.2920   26.3120 C.2    65  ALA65       0.2287
     70  O         28.6180   68.4220   26.8550 O.2    65  ALA65      -0.2864
     71  CB        31.3790   66.9930   27.6280 C.3    65  ALA65       0.0319
     72  N         37.5340   69.0730   32.5460 N.3   103  THR103     -0.1218
     73  CA        36.1680   69.2490   32.9540 C.3   103  THR103      0.1862
     74  C         36.0950   69.4140   34.4580 C.2   103  THR103      0.2287
     75  O         35.4860   70.3560   34.9630 O.2   103  THR103     -0.2866
     76  CB        35.3430   68.0260   32.5680 C.3   103  THR103      0.1770
     77  OG1       35.5700   67.6980   31.2080 O.3   103  THR103     -0.2211
     78  CG2       33.8880   68.2870   32.7670 C.3   103  THR103      0.0375
@<TRIPOS>BOND
     1     1     2    1
     2    69    70    2
     3    69    68    1
     4     6     5    1
     5     2     5    1
     6     2     3    1
     7    68    71    1
     8    68    67    1
     9     5     7    1
    10    66    65    1
    11     3     4    2
    12     3     8   am
    13    64    63    2
    14    67    63   am
    15     8     9    1
    16    63    62    1
    17    65    62    1
    18     9    12    1
    19     9    10    1
    20    12    13    1
    21    12    14    1
    22    62    61    1
    23    61    57   am
    24    15    13    1
    25    59    60    1
    26    59    56    1
    27    10    11    2
    28    57    56    1
    29    57    58    2
    30    56    55    1
    31    77    76    1
    32    55    48   am
    33    49    48    2
    34    72    73    1
    35    76    78    1
    36    76    73    1
    37    73    74    1
    38    48    47    1
    39    26    24    1
    40    16    17    1
    41    74    75    2
    42    47    50    1
    43    47    46    1
    44    20    21    1
    45    50    51    1
    46    24    21    1
    47    24    25    1
    48    21    22    1
    49    46    37   am
    50    38    37    2
    51    17    18    1
    52    37    36    1
    53    39    36    1
    54    39    40    1
    55    51    52    1
    56    41    40   ar
    57    41    43   ar
    58    18    19    2
    59    22    23    2
    60    36    35    1
    61    40    42   ar
    62    43    45   ar
    63    52    53    1
    64    42    44   ar
    65    45    44   ar
    66    35    29   am
    67    54    53    1
    68    30    29    2
    69    29    28    1
    70    28    31    1
    71    28    27    1
    72    31    32    1
    73    32    33   ar
    74    32    34   ar
