@<TRIPOS>MOLECULE
tmp/1vpmA00.pdb
 126 118 0 0 0
SMALL
GASTEIGER

@<TRIPOS>ATOM
      1  N          0.1650   45.5120   42.8960 N.3    53  VAL53      -0.1231
      2  CA         0.1320   45.2500   41.4610 C.3    53  VAL53       0.1692
      3  C         -1.0140   46.0750   40.8890 C.2    53  VAL53       0.2593
      4  O         -1.9550   46.4140   41.6060 O.2    53  VAL53      -0.2718
      5  CB        -0.1200   43.7680   41.1080 C.3    53  VAL53       0.0266
      6  CG1        1.0360   42.9030   41.6110 C.3    53  VAL53       0.0020
      7  CG2       -1.4180   43.2580   41.6500 C.3    53  VAL53       0.0020
      8  N         -0.8890   46.4270   39.6110 N.am   54  THR54      -0.1939
      9  CA        -1.9210   47.2010   38.9460 C.3    54  THR54       0.2028
     10  C         -2.9930   46.2620   38.3960 C.2    54  THR54       0.2642
     11  O         -2.7040   45.4160   37.5590 O.2    54  THR54      -0.2714
     12  CB        -1.3500   48.0090   37.8210 C.3    54  THR54       0.1808
     13  OG1       -0.3050   48.8530   38.3390 O.3    54  THR54      -0.2208
     14  CG2       -2.4630   48.8710   37.1520 C.3    54  THR54       0.0379
     15  N         -4.1960   46.3420   38.9260 N.am   55  ALA55      -0.1963
     16  CA        -5.2810   45.5330   38.3930 C.3    55  ALA55       0.1728
     17  C         -5.8800   46.0590   37.0980 C.2    55  ALA55       0.2616
     18  O         -6.2430   45.2950   36.1840 O.2    55  ALA55      -0.2715
     19  CB        -6.3960   45.4310   39.4190 C.3    55  ALA55       0.0334
     20  N         -6.0140   47.3650   37.0570 N.am   56  SER56      -0.1950
     21  CA        -6.5720   48.0950   35.9110 C.3    56  SER56       0.1924
     22  C         -6.2770   49.5990   35.9560 C.2    56  SER56       0.2314
     23  O         -5.8750   50.1680   36.9690 O.2    56  SER56      -0.2863
     24  CB        -8.0870   47.8260   35.7820 C.3    56  SER56       0.2116
     25  OG        -8.7530   48.4480   36.8290 O.3    56  SER56      -0.2180
     26  N        -11.4410   49.0260   48.6400 N.3    82  GLY82      -0.1210
     27  CA       -12.2820   47.8350   48.8640 C.3    82  GLY82       0.1956
     28  C        -11.5670   46.9950   49.9050 C.2    82  GLY82       0.2612
     29  O        -10.8990   47.5300   50.7720 O.2    82  GLY82      -0.2717
     30  N        -11.6030   45.6860   49.7600 N.am   83  ARG83      -0.1965
     31  CA       -11.0110   44.7840   50.7340 C.3    83  ARG83       0.1729
     32  C         -9.5070   44.7370   50.5830 C.2    83  ARG83       0.2617
     33  O         -8.7820   44.9360   51.5580 O.2    83  ARG83      -0.2715
     34  CB       -11.6040   43.3780   50.5800 C.3    83  ARG83       0.0348
     35  CG       -11.3590   42.5110   51.7990 C.3    83  ARG83       0.0492
     36  CD       -11.9860   41.1120   51.6470 C.3    83  ARG83       0.2205
     37  NE       -11.2260   40.2600   50.7180 N.pl3  83  ARG83      -0.0865
     38  CZ       -10.1270   39.5660   51.0300 C.cat  83  ARG83       0.5346
     39  NH1       -9.6030   39.5880   52.2620 N.pl3  83  ARG83       0.1354
     40  NH2       -9.5400   38.8340   50.0860 N.pl3  83  ARG83       0.1354
     41  N         -9.0480   44.4700   49.3600 N.am   84  THR84      -0.1937
     42  CA        -7.6280   44.4120   49.0330 C.3    84  THR84       0.2028
     43  C         -7.2300   45.4250   47.9750 C.2    84  THR84       0.2642
     44  O         -6.0530   45.4970   47.6160 O.2    84  THR84      -0.2714
     45  CB        -7.2490   43.0090   48.5190 C.3    84  THR84       0.1808
     46  OG1       -7.7890   42.7880   47.2060 O.3    84  THR84      -0.2208
     47  CG2       -7.7570   41.9520   49.4890 C.3    84  THR84       0.0379
     48  N         -8.2060   46.1820   47.4800 N.am   85  SER85      -0.1949
     49  CA        -8.0100   47.0970   46.3380 C.3    85  SER85       0.1924
     50  C         -8.1300   48.5460   46.7700 C.2    85  SER85       0.2314
     51  O         -8.7820   48.8860   47.7680 O.2    85  SER85      -0.2863
     52  CB        -9.0040   46.7520   45.2150 C.3    85  SER85       0.2116
     53  OG       -10.3350   47.0640   45.5730 O.3    85  SER85      -0.2180
     54  N         -6.7840   51.0440   39.5570 N.3   110  THR110     -0.1218
     55  CA        -7.1090   50.1220   40.6420 C.3   110  THR110      0.1862
     56  C         -5.8390   49.3480   40.9590 C.2   110  THR110      0.2287
     57  O         -5.3380   48.5440   40.1210 O.2   110  THR110     -0.2866
     58  CB        -8.2540   49.1800   40.2760 C.3   110  THR110      0.1770
     59  OG1       -9.4710   49.9210   40.0350 O.3   110  THR110     -0.2211
     60  CG2       -8.5210   48.2230   41.4420 C.3   110  THR110      0.0375
     61  N         -3.8620   46.7110   43.7440 N.3   111  VAL111     -0.1245
     62  CA        -4.1530   45.6280   44.6810 C.3   111  VAL111      0.1561
     63  C         -2.9370   45.3720   45.5060 C.2   111  VAL111      0.2260
     64  O         -1.8820   45.1730   44.9550 O.2   111  VAL111     -0.2867
     65  CB        -4.6430   44.3490   43.9460 C.3   111  VAL111      0.0252
     66  CG1       -4.8550   43.2250   44.9300 C.3   111  VAL111      0.0019
     67  CG2       -5.9510   44.6510   43.2400 C.3   111  VAL111      0.0019
     68  N         -0.5390   43.1190   47.7180 N.3   113  VAL113     -0.1245
     69  CA        -0.2160   41.7080   47.7480 C.3   113  VAL113      0.1561
     70  C          0.7810   41.3590   48.8490 C.2   113  VAL113      0.2260
     71  O          1.6700   42.1670   49.1510 O.2   113  VAL113     -0.2867
     72  CB         0.2840   41.1850   46.3890 C.3   113  VAL113      0.0252
     73  CG1       -0.7680   41.4220   45.3170 C.3   113  VAL113      0.0019
     74  CG2        1.6420   41.7530   45.9780 C.3   113  VAL113      0.0019
     75  N         -3.5330   38.6560   47.0800 N.3   119  PRO119     -0.2116
     76  CA        -4.1800   39.8510   47.5910 C.3   119  PRO119      0.1372
     77  C         -4.3150   39.9020   49.1020 C.2   119  PRO119      0.2244
     78  O         -4.6310   38.9020   49.7360 O.2   119  PRO119     -0.2868
     79  CB        -5.5450   39.8240   46.9060 C.3   119  PRO119      0.0268
     80  CG        -5.2540   39.2260   45.5980 C.3   119  PRO119      0.0207
     81  CD        -4.3030   38.1050   45.9520 C.3   119  PRO119      0.0892
     82  N        -16.5350   51.8080   40.6170 N.3   143  LYS143     -0.1245
     83  CA       -16.1920   50.4200   40.8620 C.3   143  LYS143      0.1561
     84  C        -17.2290   49.5080   40.1740 C.2   143  LYS143      0.2260
     85  O        -16.8560   48.5230   39.5500 O.2   143  LYS143     -0.2867
     86  CB       -16.1630   50.0990   42.3510 C.3   143  LYS143      0.0271
     87  CG       -15.4700   48.7440   42.6250 C.3   143  LYS143      0.0035
     88  CD       -15.3950   48.3750   44.1160 C.3   143  LYS143      0.0206
     89  CE       -14.4910   47.1190   44.3770 C.3   143  LYS143      0.1093
     90  NZ       -14.5320   46.6340   45.8080 N.3   143  LYS143     -0.1314
     91  N        -16.4170   49.2710   36.5410 N.3   146  ARG146     -0.1231
     92  CA       -15.3050   48.3860   36.2430 C.3   146  ARG146      0.1694
     93  C        -15.7710   46.9240   36.2610 C.2   146  ARG146      0.2591
     94  O        -15.3180   46.1270   35.4370 O.2   146  ARG146     -0.2718
     95  CB       -14.1670   48.5770   37.2360 C.3   146  ARG146      0.0321
     96  CG       -13.5750   49.9830   37.1920 C.3   146  ARG146      0.0489
     97  CD       -12.4840   50.1990   38.1820 C.3   146  ARG146      0.2205
     98  NE       -12.1790   51.6230   38.1430 N.pl3 146  ARG146     -0.0865
     99  CZ       -12.3290   52.4750   39.1490 C.cat 146  ARG146      0.5346
    100  NH1      -12.6860   52.0620   40.3730 N.pl3 146  ARG146      0.1354
    101  NH2      -12.0590   53.7360   38.9440 N.pl3 146  ARG146      0.1354
    102  N        -16.6540   46.5810   37.1960 N.am  147  LYS147     -0.1980
    103  CA       -17.2560   45.2330   37.2060 C.3   147  LYS147      0.1596
    104  C        -18.0380   44.9520   35.9170 C.2   147  LYS147      0.2287
    105  O        -17.8760   43.8920   35.2940 O.2   147  LYS147     -0.2864
    106  CB       -18.1600   45.0450   38.4260 C.3   147  LYS147      0.0298
    107  CG       -17.3480   44.8780   39.7240 C.3   147  LYS147      0.0038
    108  CD       -18.3470   44.7100   40.9090 C.3   147  LYS147      0.0206
    109  CE       -18.0980   45.7450   41.9880 C.3   147  LYS147      0.1093
    110  NZ       -18.6750   45.3780   43.2810 N.3   147  LYS147     -0.1314
    111  N        -17.7430   46.3470   32.9030 N.3   149  ARG149     -0.1231
    112  CA       -16.9960   46.3650   31.6420 C.3   149  ARG149      0.1694
    113  C        -16.1670   45.1060   31.4620 C.2   149  ARG149      0.2591
    114  O        -15.8200   44.7300   30.3230 O.2   149  ARG149     -0.2718
    115  CB       -16.0870   47.5820   31.5730 C.3   149  ARG149      0.0321
    116  CG       -14.7640   47.4010   32.3030 C.3   149  ARG149      0.0489
    117  CD       -14.0490   48.6920   32.3410 C.3   149  ARG149      0.2205
    118  NE       -12.7870   48.5800   33.0660 N.pl3 149  ARG149     -0.0865
    119  CZ       -12.2170   49.6140   33.6890 C.cat 149  ARG149      0.5346
    120  NH1      -12.8090   50.8040   33.7130 N.pl3 149  ARG149      0.1354
    121  NH2      -11.0790   49.4620   34.3100 N.pl3 149  ARG149      0.1354
    122  N        -15.8190   44.4790   32.5820 N.am  150  ALA150     -0.1980
    123  CA       -15.0430   43.2620   32.5640 C.3   150  ALA150      0.1597
    124  C        -15.9490   42.0150   32.4860 C.2   150  ALA150      0.2287
    125  O        -15.4470   40.9000   32.3300 O.2   150  ALA150     -0.2864
    126  CB       -14.1400   43.2070   33.7970 C.3   150  ALA150      0.0319
@<TRIPOS>BOND
     1   114   113    2
     2   113   112    1
     3   113   122   am
     4   115   112    1
     5   115   116    1
     6   112   111    1
     7   116   117    1
     8   125   124    2
     9   117   118    1
    10   124   123    1
    11   123   122    1
    12   123   126    1
    13   118   119    2
    14   119   120    1
    15   119   121    1
    16   105   104    2
    17    94    93    2
    18    24    21    1
    19    24    25    1
    20    21    22    1
    21    21    20    1
    22   104   103    1
    23    22    23    2
    24    18    17    2
    25    92    93    1
    26    92    91    1
    27    92    95    1
    28    93   102   am
    29    20    17   am
    30    17    16    1
    31    14    12    1
    32    96    95    1
    33    96    97    1
    34   102   103    1
    35   103   106    1
    36    11    10    2
    37    12    13    1
    38    12     9    1
    39    98    97    1
    40    98    99    2
    41    16    15    1
    42    16    19    1
    43    10    15   am
    44    10     9    1
    45   106   107    1
    46   101    99    1
    47     9     8    1
    48    99   100    1
    49    85    84    2
    50    54    55    1
    51     8     3   am
    52   107   108    1
    53    59    58    1
    54    57    56    2
    55    84    83    1
    56    58    55    1
    57    58    60    1
    58    82    83    1
    59    55    56    1
    60    83    86    1
    61     3     2    1
    62     3     4    2
    63   108   109    1
    64     5     2    1
    65     5     6    1
    66     5     7    1
    67     2     1    1
    68   109   110    1
    69    86    87    1
    70    87    88    1
    71    67    65    1
    72    61    62    1
    73    65    62    1
    74    65    66    1
    75    88    89    1
    76    89    90    1
    77    62    63    1
    78    64    63    2
    79    52    53    1
    80    52    49    1
    81    73    72    1
    82    80    81    1
    83    80    79    1
    84    81    75    1
    85    74    72    1
    86    49    50    1
    87    49    48    1
    88    72    69    1
    89    50    51    2
    90    79    76    1
    91    75    76    1
    92    46    45    1
    93    48    43   am
    94    76    77    1
    95    44    43    2
    96    68    69    1
    97    69    70    1
    98    43    42    1
    99    45    42    1
   100    45    47    1
   101    26    27    1
   102    70    71    2
   103    27    28    1
   104    42    41    1
   105    77    78    2
   106    41    32   am
   107    30    28   am
   108    30    31    1
   109    28    29    2
   110    40    38    1
   111    34    31    1
   112    34    35    1
   113    32    31    1
   114    32    33    2
   115    37    38    2
   116    37    36    1
   117    38    39    1
   118    36    35    1
