@<TRIPOS>MOLECULE
tmp/1vpvA00.pdb
 203 190 0 0 0
SMALL
GASTEIGER

@<TRIPOS>ATOM
      1  N        -25.4780   -4.0460   -7.8200 N.3     9  THR9       -0.1218
      2  CA       -26.6100   -3.3780   -7.1790 C.3     9  THR9        0.1862
      3  C        -27.5250   -2.6130   -8.1510 C.2     9  THR9        0.2287
      4  O        -28.5320   -2.1170   -7.7290 O.2     9  THR9       -0.2866
      5  CB       -26.1580   -2.3730   -6.0840 C.3     9  THR9        0.1770
      6  OG1      -25.6640   -1.1850   -6.6840 O.3     9  THR9       -0.2211
      7  CG2      -25.0810   -2.9670   -5.2460 C.3     9  THR9        0.0375
      8  N        -20.6040   -6.9340   -6.5320 N.3    26  LEU26      -0.1245
      9  CA       -20.2530   -6.7050   -5.1480 C.3    26  LEU26       0.1561
     10  C        -20.2870   -8.0690   -4.4290 C.2    26  LEU26       0.2260
     11  O        -20.5850   -9.1060   -5.0380 O.2    26  LEU26      -0.2867
     12  CB       -21.2150   -5.7060   -4.4940 C.3    26  LEU26       0.0270
     13  CG       -20.9200   -4.2300   -4.7040 C.3    26  LEU26       0.0019
     14  CD1      -21.2190   -3.8080   -6.1560 C.3    26  LEU26       0.0001
     15  CD2      -21.7080   -3.3840   -3.7310 C.3    26  LEU26       0.0001
     16  N        -22.5850   -7.0040    3.2710 N.3    60  THR60      -0.1203
     17  CA       -22.1700   -6.7550    1.9020 C.3    60  THR60       0.1994
     18  C        -20.8910   -5.9160    1.8970 C.2    60  THR60       0.2619
     19  O        -20.6290   -5.1920    2.8420 O.2    60  THR60      -0.2717
     20  CB       -23.3030   -5.9940    1.1110 C.3    60  THR60       0.1784
     21  OG1      -23.5480   -4.7080    1.7140 O.3    60  THR60      -0.2211
     22  CG2      -24.5960   -6.8010    1.0930 C.3    60  THR60       0.0376
     23  N        -20.0720   -6.0390    0.8660 N.am   61  SER61      -0.1937
     24  CA       -18.9740   -5.1000    0.7000 C.3    61  SER61       0.2055
     25  C        -18.8640   -4.6960   -0.7510 C.2    61  SER61       0.2642
     26  O        -19.2500   -5.4460   -1.6280 O.2    61  SER61      -0.2714
     27  CB       -17.6650   -5.7300    1.1410 C.3    61  SER61       0.2130
     28  OG       -17.2660   -6.6910    0.1860 O.3    61  SER61      -0.2179
     29  N        -18.3060   -3.5260   -1.0050 N.am   62  GLN62      -0.1976
     30  CA       -18.0540   -3.0750   -2.3870 C.3    62  GLN62       0.1601
     31  C        -16.9630   -3.8770   -3.0840 C.2    62  GLN62       0.2287
     32  O        -16.2360   -4.6380   -2.4410 O.2    62  GLN62      -0.2864
     33  CB       -17.6870   -1.5910   -2.4220 C.3    62  GLN62       0.0394
     34  CG       -16.2410   -1.2880   -2.1230 C.3    62  GLN62       0.0908
     35  CD       -15.9860   -1.0420   -0.6490 C.2    62  GLN62       0.2608
     36  OE1      -16.2620   -1.8960    0.1950 O.2    62  GLN62      -0.2717
     37  NE2      -15.4680    0.1320   -0.3310 N.am   62  GLN62      -0.0878
     38  N        -23.9910    2.8210   -8.0260 N.3    88  LEU88      -0.1245
     39  CA       -24.9310    3.2370   -6.9890 C.3    88  LEU88       0.1561
     40  C        -24.3990    4.4460   -6.1770 C.2    88  LEU88       0.2260
     41  O        -23.2010    4.7380   -6.1440 O.2    88  LEU88      -0.2867
     42  CB       -25.3180    2.0510   -6.0800 C.3    88  LEU88       0.0270
     43  CG       -24.3680    1.6290   -4.9790 C.3    88  LEU88       0.0019
     44  CD1      -25.1410    0.8950   -3.9240 C.3    88  LEU88       0.0001
     45  CD2      -23.1890    0.7990   -5.4710 C.3    88  LEU88       0.0001
     46  N        -24.4310    5.5560   -0.2680 N.3    92  LEU92      -0.1231
     47  CA       -24.8010    4.2200    0.1960 C.3    92  LEU92       0.1693
     48  C        -23.6170    3.2470    0.1750 C.2    92  LEU92       0.2593
     49  O        -23.6800    2.2020    0.7960 O.2    92  LEU92      -0.2718
     50  CB       -25.9560    3.6560   -0.6430 C.3    92  LEU92       0.0284
     51  CG       -27.2760    4.4650   -0.6900 C.3    92  LEU92       0.0019
     52  CD1      -28.3020    3.7660   -1.5130 C.3    92  LEU92       0.0001
     53  CD2      -27.8850    4.7910    0.6910 C.3    92  LEU92       0.0001
     54  N        -22.5240    3.5760   -0.4970 N.am   93  SER93      -0.1938
     55  CA       -21.5160    2.5570   -0.7680 C.3    93  SER93       0.2055
     56  C        -20.2420    3.1980   -1.2510 C.2    93  SER93       0.2643
     57  O        -20.2850    4.2520   -1.9100 O.2    93  SER93      -0.2714
     58  CB       -22.0580    1.5760   -1.8490 C.3    93  SER93       0.2130
     59  OG       -21.1280    0.5750   -2.2340 O.3    93  SER93      -0.2179
     60  N        -19.1170    2.5640   -0.9270 N.am   94  GLY94      -0.1954
     61  CA       -17.7770    2.9710   -1.4590 C.3    94  GLY94       0.1869
     62  C        -17.4910    2.4510   -2.8790 C.2    94  GLY94       0.2309
     63  O        -16.3810    2.5630   -3.3910 O.2    94  GLY94      -0.2863
     64  N        -29.9020    3.4530   -6.8900 N.3   118  ALA118     -0.1231
     65  CA       -29.5820    2.0660   -6.6550 C.3   118  ALA118      0.1694
     66  C        -30.6460    1.2070   -7.3290 C.2   118  ALA118      0.2593
     67  O        -31.7210    1.7230   -7.6670 O.2   118  ALA118     -0.2718
     68  CB       -29.5160    1.7930   -5.2000 C.3   118  ALA118      0.0304
     69  N        -30.2940   -0.0690   -7.5490 N.am  119  SER119     -0.1938
     70  CA       -31.1770   -1.1100   -8.0500 C.3   119  SER119      0.2055
     71  C        -31.7180   -0.7060   -9.3920 C.2   119  SER119      0.2644
     72  O        -30.9740   -0.1010  -10.1660 O.2   119  SER119     -0.2714
     73  CB       -32.2840   -1.4200   -7.0570 C.3   119  SER119      0.2130
     74  OG       -33.1750   -2.4030   -7.5700 O.3   119  SER119     -0.2179
     75  N        -32.9910   -1.0450   -9.6830 N.am  120  GLY120     -0.1939
     76  CA       -33.5530   -0.9260  -11.0610 C.3   120  GLY120      0.2014
     77  C        -33.6000    0.4950  -11.6310 C.2   120  GLY120      0.2638
     78  O        -33.9190    0.7040  -12.8120 O.2   120  GLY120     -0.2714
     79  N        -33.3200    1.5030  -10.8230 N.am  121  ALA121     -0.1977
     80  CA       -33.2620    2.8370  -11.3740 C.3   121  ALA121      0.1597
     81  C        -31.9560    3.0760  -12.1380 C.2   121  ALA121      0.2287
     82  O        -31.9420    3.8730  -13.0470 O.2   121  ALA121     -0.2864
     83  CB       -33.4490    3.8610  -10.3080 C.3   121  ALA121      0.0319
     84  N        -36.2670    6.0010   -7.8080 N.3   155  ALA155     -0.1231
     85  CA       -36.3110    4.6590   -7.2010 C.3   155  ALA155      0.1694
     86  C        -37.2820    4.7050   -6.0160 C.2   155  ALA155      0.2592
     87  O        -37.1070    5.5120   -5.0840 O.2   155  ALA155     -0.2718
     88  CB       -34.9400    4.2460   -6.7570 C.3   155  ALA155      0.0304
     89  N        -38.3270    3.8820   -6.0980 N.am  156  ILE156     -0.1966
     90  CA       -39.4710    3.8870   -5.1700 C.3   156  ILE156      0.1727
     91  C        -39.8530    2.4130   -4.8900 C.2   156  ILE156      0.2616
     92  O        -40.0280    1.6200   -5.8200 O.2   156  ILE156     -0.2715
     93  CB       -40.6540    4.6590   -5.7890 C.3   156  ILE156      0.0290
     94  CG1      -40.2340    6.1180   -6.0810 C.3   156  ILE156      0.0022
     95  CG2      -41.8870    4.6160   -4.8830 C.3   156  ILE156      0.0023
     96  CD1      -41.2600    6.9470   -6.8350 C.3   156  ILE156      0.0001
     97  N        -39.9640    2.0300   -3.6210 N.am  157  PHE157     -0.1974
     98  CA       -40.1490    0.5980   -3.2870 C.3   157  PHE157      0.1639
     99  C        -40.7430    0.4130   -1.9000 C.2   157  PHE157      0.2290
    100  O        -40.7910    1.3630   -1.0930 O.2   157  PHE157     -0.2864
    101  CB       -38.8080   -0.1850   -3.4150 C.3   157  PHE157      0.0560
    102  CG       -37.7500    0.1990   -2.3960 C.ar  157  PHE157     -0.0200
    103  CD1      -37.0630    1.4220   -2.4890 C.ar  157  PHE157     -0.0042
    104  CD2      -37.4220   -0.6680   -1.3590 C.ar  157  PHE157     -0.0042
    105  CE1      -36.0390    1.7780   -1.5530 C.ar  157  PHE157     -0.0003
    106  CE2      -36.4310   -0.3470   -0.4380 C.ar  157  PHE157     -0.0003
    107  CZ       -35.7340    0.9000   -0.5240 C.ar  157  PHE157     -0.0000
    108  N        -33.2570   -3.6170    6.2740 N.3   165  LEU165     -0.1245
    109  CA       -32.6450   -2.3100    6.0130 C.3   165  LEU165      0.1561
    110  C        -31.9100   -1.7630    7.2420 C.2   165  LEU165      0.2260
    111  O        -30.7910   -1.2310    7.1440 O.2   165  LEU165     -0.2867
    112  CB       -33.6990   -1.3170    5.5490 C.3   165  LEU165      0.0270
    113  CG       -34.0920   -1.4560    4.0760 C.3   165  LEU165      0.0019
    114  CD1      -35.2990   -0.5950    3.7930 C.3   165  LEU165      0.0001
    115  CD2      -32.9280   -0.9700    3.2160 C.3   165  LEU165      0.0001
    116  N        -28.1460    1.4230    6.0600 N.3   170  ARG170     -0.1245
    117  CA       -28.3230    2.5510    5.1460 C.3   170  ARG170      0.1563
    118  C        -29.5340    3.4790    5.4240 C.2   170  ARG170      0.2260
    119  O        -29.8130    4.4140    4.6380 O.2   170  ARG170     -0.2867
    120  CB       -28.3620    2.0530    3.7020 C.3   170  ARG170      0.0307
    121  CG       -27.0520    1.9770    3.0480 C.3   170  ARG170      0.0489
    122  CD       -26.0830    1.0490    3.7760 C.3   170  ARG170      0.2205
    123  NE       -24.8530    0.9480    3.0080 N.pl3 170  ARG170     -0.0865
    124  CZ       -23.8630    0.0980    3.2510 C.cat 170  ARG170      0.5346
    125  NH1      -23.9360   -0.7320    4.2690 N.pl3 170  ARG170      0.1354
    126  NH2      -22.7910    0.0860    2.4820 N.pl3 170  ARG170      0.1354
    127  N        -35.5590    7.1360   -2.8650 N.3   185  ILE185     -0.1245
    128  CA       -34.2300    7.6820   -2.8170 C.3   185  ILE185      0.1561
    129  C        -34.2800    9.1350   -3.2080 C.2   185  ILE185      0.2260
    130  O        -34.8050    9.4650   -4.2440 O.2   185  ILE185     -0.2867
    131  CB       -33.3450    6.9440   -3.8010 C.3   185  ILE185      0.0252
    132  CG1      -33.3670    5.4610   -3.4380 C.3   185  ILE185      0.0019
    133  CG2      -31.9450    7.5690   -3.7850 C.3   185  ILE185      0.0019
    134  CD1      -32.1840    4.6570   -3.9310 C.3   185  ILE185      0.0001
    135  N        -31.5790    6.9020    1.3830 N.3   190  LEU190     -0.1245
    136  CA       -32.8300    6.1320    1.5520 C.3   190  LEU190      0.1561
    137  C        -33.7610    6.7870    2.5420 C.2   190  LEU190      0.2260
    138  O        -33.3910    6.9970    3.6780 O.2   190  LEU190     -0.2867
    139  CB       -32.5800    4.7260    2.0780 C.3   190  LEU190      0.0270
    140  CG       -32.3130    3.6460    1.0810 C.3   190  LEU190      0.0019
    141  CD1      -32.1340    2.2900    1.8520 C.3   190  LEU190      0.0001
    142  CD2      -33.4630    3.6040    0.0650 C.3   190  LEU190      0.0001
    143  N        -38.9010   -4.0080  -10.1400 N.3   225  VAL225     -0.1245
    144  CA       -37.9480   -4.8490   -9.4110 C.3   225  VAL225      0.1561
    145  C        -38.6070   -5.5850   -8.2820 C.2   225  VAL225      0.2260
    146  O        -39.6150   -5.1500   -7.7270 O.2   225  VAL225     -0.2867
    147  CB       -36.7210   -4.0770   -8.8540 C.3   225  VAL225      0.0252
    148  CG1      -35.9140   -3.4680   -9.9980 C.3   225  VAL225      0.0019
    149  CG2      -37.1700   -3.0240   -7.8730 C.3   225  VAL225      0.0019
    150  N        -26.9540   -8.5050   -3.3000 N.3   256  VAL256     -0.1231
    151  CA       -26.6690   -7.3720   -2.4180 C.3   256  VAL256      0.1692
    152  C        -27.9380   -6.5690   -2.1000 C.2   256  VAL256      0.2591
    153  O        -28.2410   -6.2920   -0.9420 O.2   256  VAL256     -0.2718
    154  CB       -25.5670   -6.4890   -3.0150 C.3   256  VAL256      0.0266
    155  CG1      -25.3560   -5.2550   -2.1860 C.3   256  VAL256      0.0020
    156  CG2      -24.2620   -7.2840   -3.0760 C.3   256  VAL256      0.0020
    157  N        -28.6930   -6.1940   -3.1070 N.am  257  ILE257     -0.1980
    158  CA       -29.9010   -5.4460   -2.8440 C.3   257  ILE257      0.1595
    159  C        -30.8600   -6.2670   -1.9440 C.2   257  ILE257      0.2287
    160  O        -31.3970   -5.7660   -0.9370 O.2   257  ILE257     -0.2864
    161  CB       -30.5320   -4.9700   -4.1580 C.3   257  ILE257      0.0276
    162  CG1      -29.6470   -3.8670   -4.7790 C.3   257  ILE257      0.0022
    163  CG2      -31.9450   -4.4860   -3.9420 C.3   257  ILE257      0.0022
    164  CD1      -29.7320   -2.5230   -4.0820 C.3   257  ILE257      0.0001
    165  N        -30.1140   -6.3840    1.7340 N.3   260  HIS260     -0.1226
    166  CA       -30.4780   -5.1650    2.4410 C.3   260  HIS260      0.1752
    167  C        -31.9730   -4.9560    2.5380 C.2   260  HIS260      0.2595
    168  O        -32.4080   -4.3580    3.5090 O.2   260  HIS260     -0.2718
    169  CB       -29.8760   -3.9300    1.7670 C.3   260  HIS260      0.0759
    170  CG       -28.4440   -3.7450    2.0680 C.ar  260  HIS260      0.0818
    171  ND1      -28.0120   -2.9360    3.0920 N.ar  260  HIS260     -0.2268
    172  CD2      -27.3360   -4.2870    1.5070 C.ar  260  HIS260      0.1154
    173  CE1      -26.6900   -2.9930    3.1550 C.ar  260  HIS260      0.1986
    174  NE2      -26.2560   -3.7810    2.1840 N.ar  260  HIS260     -0.2212
    175  N        -32.7540   -5.3900    1.5430 N.am  261  VAL261     -0.1980
    176  CA       -34.1890   -5.0450    1.5510 C.3   261  VAL261      0.1595
    177  C        -35.0530   -6.1300    2.1070 C.2   261  VAL261      0.2287
    178  O        -36.1310   -5.8520    2.6540 O.2   261  VAL261     -0.2864
    179  CB       -34.7740   -4.5980    0.1660 C.3   261  VAL261      0.0276
    180  CG1      -34.2050   -3.2620   -0.2390 C.3   261  VAL261      0.0022
    181  CG2      -34.5340   -5.6190   -0.9040 C.3   261  VAL261      0.0022
    182  N        -39.7020   -7.9170   -1.2130 N.3   265  THR265     -0.1218
    183  CA       -39.6530   -6.5170   -1.6260 C.3   265  THR265      0.1862
    184  C        -40.1110   -6.2740   -3.0830 C.2   265  THR265      0.2287
    185  O        -39.8500   -7.0780   -3.9670 O.2   265  THR265     -0.2866
    186  CB       -38.2290   -5.9790   -1.4170 C.3   265  THR265      0.1770
    187  OG1      -37.9060   -6.0370   -0.0120 O.3   265  THR265     -0.2211
    188  CG2      -38.0620   -4.5120   -1.9490 C.3   265  THR265      0.0375
    189  N        -40.1790    0.0240   -8.1480 N.3   268  PHE268     -0.1227
    190  CA       -39.8070    0.3250   -9.5040 C.3   268  PHE268      0.1736
    191  C        -38.7930    1.4270   -9.6380 C.2   268  PHE268      0.2596
    192  O        -38.7260    2.3340   -8.8010 O.2   268  PHE268     -0.2718
    193  CB       -41.0250    0.5520  -10.4090 C.3   268  PHE268      0.0547
    194  CG       -42.1220    1.4300   -9.8450 C.ar  268  PHE268     -0.0202
    195  CD1      -41.8800    2.4690   -8.9740 C.ar  268  PHE268     -0.0042
    196  CD2      -43.4160    1.2550  -10.2980 C.ar  268  PHE268     -0.0042
    197  CE1      -42.9220    3.2460   -8.5130 C.ar  268  PHE268     -0.0003
    198  CE2      -44.4550    2.0330   -9.8250 C.ar  268  PHE268     -0.0003
    199  CZ       -44.2140    3.0260   -8.9490 C.ar  268  PHE268     -0.0000
    200  N        -37.9640    1.2970  -10.6810 N.am  269  GLY269     -0.1957
    201  CA       -37.1350    2.3830  -11.1830 C.3   269  GLY269      0.1869
    202  C        -37.9540    3.0190  -12.2790 C.2   269  GLY269      0.2309
    203  O        -38.4540    2.3140  -13.1490 O.2   269  GLY269     -0.2863
@<TRIPOS>BOND
     1   203   202    2
     2    82    81    2
     3    78    77    2
     4   202   201    1
     5    81    80    1
     6    77    76    1
     7    77    79   am
     8    80    79    1
     9    80    83    1
    10   201   200    1
    11    76    75    1
    12   200   191   am
    13   193   194    1
    14   193   190    1
    15   196   194   ar
    16   196   198   ar
    17    72    71    2
    18   143   144    1
    19   148   147    1
    20   194   195   ar
    21   198   199   ar
    22    75    71   am
    23   191   190    1
    24   191   192    2
    25   190   189    1
    26   144   147    1
    27   144   145    1
    28    71    70    1
    29   195   197   ar
    30   199   197   ar
    31   147   149    1
    32   145   146    2
    33     3     4    2
    34     3     2    1
    35    70    69    1
    36    70    73    1
    37    38    39    1
    38     1     2    1
    39    84    85    1
    40    67    66    2
    41    74    73    1
    42    69    66   am
    43    66    65    1
    44    85    88    1
    45    85    86    1
    46     2     5    1
    47    39    40    1
    48    39    42    1
    49    64    65    1
    50    96    94    1
    51     6     5    1
    52    65    68    1
    53     8     9    1
    54    40    41    2
    55    14    13    1
    56    89    86   am
    57    89    90    1
    58     5     7    1
    59    94    93    1
    60    42    43    1
    61    86    87    2
    62    92    91    2
    63    93    90    1
    64    93    95    1
    65    45    43    1
    66    90    91    1
    67     9    12    1
    68     9    10    1
    69    11    10    2
    70    43    44    1
    71    91    97   am
    72   162   161    1
    73   162   164    1
    74    13    12    1
    75    13    15    1
    76   130   129    2
    77   161   163    1
    78   161   158    1
    79   185   184    2
    80   134   132    1
    81   131   133    1
    82   131   132    1
    83   131   128    1
    84    97    98    1
    85   101    98    1
    86   101   102    1
    87    63    62    2
    88   150   151    1
    89    98    99    1
    90   129   128    1
    91   157   158    1
    92   157   152   am
    93    31    32    2
    94    31    30    1
    95   184   183    1
    96   156   154    1
    97   154   151    1
    98   154   155    1
    99    62    61    1
   100   127   128    1
   101   158   159    1
   102   103   102   ar
   103   103   105   ar
   104    33    30    1
   105    33    34    1
   106   151   152    1
   107   102   104   ar
   108    30    29    1
   109    59    58    1
   110    34    35    1
   111   152   153    2
   112   188   186    1
   113   159   160    2
   114    57    56    2
   115    99   100    2
   116    58    55    1
   117    26    25    2
   118   183   186    1
   119   183   182    1
   120   105   107   ar
   121    52    51    1
   122    61    60    1
   123   186   187    1
   124   104   106   ar
   125    56    60   am
   126    56    55    1
   127    29    25   am
   128   181   179    1
   129    55    54    1
   130    25    24    1
   131    51    50    1
   132    51    53    1
   133    35    37   am
   134    35    36    2
   135    50    47    1
   136   107   106   ar
   137    54    48   am
   138    46    47    1
   139   180   179    1
   140   142   140    1
   141   179   176    1
   142    48    47    1
   143    48    49    2
   144    28    27    1
   145    24    23    1
   146    24    27    1
   147    23    18   am
   148   140   141    1
   149   140   139    1
   150    22    20    1
   151    20    21    1
   152    20    17    1
   153   135   136    1
   154   172   170   ar
   155   172   174   ar
   156   175   176    1
   157   175   167   am
   158   176   177    1
   159   136   139    1
   160   136   137    1
   161   165   166    1
   162   169   170    1
   163   169   166    1
   164    18    17    1
   165    18    19    2
   166    17    16    1
   167   170   171   ar
   168   177   178    2
   169   174   173   ar
   170   166   167    1
   171   126   124    1
   172   167   168    2
   173   137   138    2
   174   123   124    2
   175   123   122    1
   176   121   120    1
   177   121   122    1
   178   171   173   ar
   179   115   113    1
   180   124   125    1
   181   120   117    1
   182   114   113    1
   183   113   112    1
   184   119   118    2
   185   117   118    1
   186   117   116    1
   187   112   109    1
   188   109   108    1
   189   109   110    1
   190   111   110    2
