@<TRIPOS>MOLECULE
tmp/1vq2A00.pdb
 161 154 0 0 0
SMALL
GASTEIGER

@<TRIPOS>ATOM
      1  N         73.3390    6.7530    9.9060 N.3    19  CYS19      -0.1235
      2  CA        74.6770    6.4560   10.4180 C.3    19  CYS19       0.1677
      3  C         74.8850    4.9480   10.4740 C.2    19  CYS19       0.2270
      4  O         73.9950    4.2090   10.8930 O.2    19  CYS19      -0.2867
      5  CB        74.8730    7.0470   11.8190 C.3    19  CYS19       0.0956
      6  SG        76.5440    6.7980   12.4990 S.3    19  CYS19      -0.0801
      7  N         77.2730    3.4940   12.2810 N.3    21  SER21      -0.1202
      8  CA        77.8700    3.1050   13.5570 C.3    21  SER21       0.2020
      9  C         76.8440    2.9710   14.6710 C.2    21  SER21       0.2618
     10  O         76.7330    1.9150   15.2950 O.2    21  SER21      -0.2717
     11  CB        78.9430    4.1140   13.9670 C.3    21  SER21       0.2103
     12  OG        79.6350    3.6590   15.1140 O.3    21  SER21      -0.2182
     13  N         76.1070    4.0500   14.9190 N.am   22  TRP22      -0.1975
     14  CA        75.0710    4.0860   15.9480 C.3    22  TRP22       0.1640
     15  C         73.8450    4.8480   15.4490 C.2    22  TRP22       0.2290
     16  O         73.9710    5.7950   14.6760 O.2    22  TRP22      -0.2864
     17  CB        75.5550    4.8110   17.2050 C.3    22  TRP22       0.0576
     18  CG        76.4930    4.0670   18.0940 C.ar   22  TRP22       0.0006
     19  CD1       77.8540    4.0070   17.9890 C.ar   22  TRP22       0.0946
     20  CD2       76.1480    3.3480   19.2840 C.ar   22  TRP22       0.0152
     21  NE1       78.3790    3.3030   19.0470 N.ar   22  TRP22      -0.2442
     22  CE2       77.3550    2.8860   19.8570 C.ar   22  TRP22       0.0810
     23  CE3       74.9370    3.0520   19.9230 C.ar   22  TRP22       0.0012
     24  CZ2       77.3870    2.1430   21.0420 C.ar   22  TRP22       0.0191
     25  CZ3       74.9660    2.3140   21.1010 C.ar   22  TRP22       0.0001
     26  CH2       76.1870    1.8670   21.6490 C.ar   22  TRP22       0.0015
     27  N         70.9390    7.1050   16.8400 N.3    24  VAL24      -0.1245
     28  CA        70.5800    7.8220   18.0540 C.3    24  VAL24       0.1561
     29  C         69.3520    8.6880   17.8380 C.2    24  VAL24       0.2260
     30  O         69.1680    9.2660   16.7740 O.2    24  VAL24      -0.2867
     31  CB        71.7660    8.6880   18.5230 C.3    24  VAL24       0.0252
     32  CG1       71.5150    9.2270   19.9310 C.3    24  VAL24       0.0019
     33  CG2       73.0450    7.8480   18.4860 C.3    24  VAL24       0.0019
     34  N         70.8780   11.5340   14.7240 N.3    40  ASN40      -0.1240
     35  CA        72.2000   11.8370   14.1880 C.3    40  ASN40       0.1653
     36  C         72.2730   11.6620   12.6720 C.2    40  ASN40       0.2266
     37  O         71.8060   10.6650   12.1180 O.2    40  ASN40      -0.2867
     38  CB        73.2660   10.9750   14.8850 C.3    40  ASN40       0.1155
     39  CG        73.0100    9.4790   14.7510 C.2    40  ASN40       0.2627
     40  OD1       71.8770    9.0180   14.8550 O.2    40  ASN40      -0.2716
     41  ND2       74.0750    8.7150   14.5490 N.am   40  ASN40      -0.0877
     42  N         85.9800    1.5250   12.2830 N.3    71  ARG71      -0.1245
     43  CA        85.2530    2.4220   13.1690 C.3    71  ARG71       0.1563
     44  C         86.0300    3.6960   13.4490 C.2    71  ARG71       0.2260
     45  O         85.4450    4.7710   13.5940 O.2    71  ARG71      -0.2867
     46  CB        84.8960    1.7480   14.4910 C.3    71  ARG71       0.0307
     47  CG        83.9920    2.6490   15.3170 C.3    71  ARG71       0.0489
     48  CD        83.3590    1.9650   16.4990 C.3    71  ARG71       0.2205
     49  NE        82.4970    2.8980   17.2180 N.pl3  71  ARG71      -0.0865
     50  CZ        81.9140    2.6340   18.3790 C.cat  71  ARG71       0.5346
     51  NH1       82.0960    1.4560   18.9600 N.pl3  71  ARG71       0.1354
     52  NH2       81.1590    3.5540   18.9650 N.pl3  71  ARG71       0.1354
     53  N         85.5770    5.9810   10.7300 N.3    74  HIS74      -0.1226
     54  CA        84.2210    6.5020   10.7810 C.3    74  HIS74       0.1752
     55  C         84.1140    7.6250   11.8140 C.2    74  HIS74       0.2596
     56  O         83.5120    8.6580   11.5450 O.2    74  HIS74      -0.2718
     57  CB        83.2140    5.4030   11.1240 C.3    74  HIS74       0.0759
     58  CG        81.8990    5.9430   11.5850 C.ar   74  HIS74       0.0818
     59  ND1       81.6640    6.2950   12.8950 N.ar   74  HIS74      -0.2268
     60  CD2       80.7990    6.3200   10.8920 C.ar   74  HIS74       0.1154
     61  CE1       80.4800    6.8710   12.9890 C.ar   74  HIS74       0.1986
     62  NE2       79.9360    6.9000   11.7870 N.ar   74  HIS74      -0.2212
     63  N         84.6950    7.4190   12.9930 N.am   75  SER75      -0.1952
     64  CA        84.6560    8.4350   14.0430 C.3    75  SER75       0.1924
     65  C         85.2600    9.7580   13.5820 C.2    75  SER75       0.2314
     66  O         84.7060   10.8190   13.8630 O.2    75  SER75      -0.2863
     67  CB        85.3880    7.9480   15.2940 C.3    75  SER75       0.2116
     68  OG        84.5930    7.0170   16.0030 O.3    75  SER75      -0.2180
     69  N         82.8120   11.2280   11.0070 N.3    78  SER78      -0.1217
     70  CA        81.5880   11.5980   11.7070 C.3    78  SER78       0.1889
     71  C         81.7450   12.8630   12.5540 C.2    78  SER78       0.2288
     72  O         80.8680   13.7290   12.5460 O.2    78  SER78      -0.2866
     73  CB        81.1250   10.4310   12.5820 C.3    78  SER78       0.2089
     74  OG        79.8590   10.6850   13.1630 O.3    78  SER78      -0.2183
     75  N         78.7100   14.5730   10.8800 N.3    82  GLU82      -0.1245
     76  CA        77.4000   14.2340   11.4150 C.3    82  GLU82       0.1567
     77  C         77.0170   14.9790   12.6800 C.2    82  GLU82       0.2260
     78  O         77.7600   14.9840   13.6600 O.2    82  GLU82      -0.2867
     79  CB        77.3090   12.7350   11.6900 C.3    82  GLU82       0.0388
     80  CG        77.5490   11.8760   10.4700 C.3    82  GLU82       0.1160
     81  CD        77.2650   10.4250   10.7430 C.2    82  GLU82       0.3649
     82  OE1       76.0910   10.0060   10.6410 O.co2  82  GLU82      -0.2457
     83  OE2       78.2220    9.7100   11.0810 O.co2  82  GLU82      -0.2457
     84  N         74.9730   15.3400   15.9810 N.3    84  HIS84      -0.1226
     85  CA        74.4300   14.3410   16.8830 C.3    84  HIS84       0.1752
     86  C         72.9450   14.5800   17.1430 C.2    84  HIS84       0.2596
     87  O         72.4490   15.7000   16.9850 O.2    84  HIS84      -0.2718
     88  CB        75.2360   14.3220   18.1830 C.3    84  HIS84       0.0759
     89  CG        76.6640   13.9130   17.9850 C.ar   84  HIS84       0.0818
     90  ND1       77.4430   13.3960   18.9980 N.ar   84  HIS84      -0.2268
     91  CD2       77.4530   13.9340   16.8830 C.ar   84  HIS84       0.1154
     92  CE1       78.6460   13.1140   18.5330 C.ar   84  HIS84       0.1986
     93  NE2       78.6800   13.4320   17.2520 N.ar   84  HIS84      -0.2212
     94  N         72.2390   13.5150   17.5170 N.am   85  ALA85      -0.1966
     95  CA        70.8050   13.5760   17.7840 C.3    85  ALA85       0.1728
     96  C         70.3990   14.7170   18.7170 C.2    85  ALA85       0.2616
     97  O         69.4990   15.4900   18.4020 O.2    85  ALA85      -0.2715
     98  CB        70.3260   12.2390   18.3730 C.3    85  ALA85       0.0334
     99  N         71.0570   14.8040   19.8700 N.am   86  GLU86      -0.1977
    100  CA        70.7460   15.8320   20.8600 C.3    86  GLU86       0.1602
    101  C         70.8590   17.2400   20.2890 C.2    86  GLU86       0.2287
    102  O         69.9890   18.0810   20.4990 O.2    86  GLU86      -0.2864
    103  CB        71.6820   15.7110   22.0660 C.3    86  GLU86       0.0415
    104  CG        71.6930   14.3470   22.7090 C.3    86  GLU86       0.1163
    105  CD        72.7600   13.4320   22.1260 C.2    86  GLU86       0.3649
    106  OE1       72.7530   13.1840   20.8990 O.co2  86  GLU86      -0.2457
    107  OE2       73.6080   12.9560   22.9070 O.co2  86  GLU86      -0.2457
    108  N         70.7680    7.2640   23.6450 N.3   109  LEU109     -0.1231
    109  CA        72.1340    7.0470   24.1070 C.3   109  LEU109      0.1693
    110  C         72.6570    8.1940   24.9850 C.2   109  LEU109      0.2593
    111  O         72.3320    9.3580   24.7540 O.2   109  LEU109     -0.2718
    112  CB        73.0330    6.8870   22.8790 C.3   109  LEU109      0.0284
    113  CG        74.4620    6.3600   23.0080 C.3   109  LEU109      0.0019
    114  CD1       74.4420    4.9140   23.5180 C.3   109  LEU109      0.0001
    115  CD2       75.1350    6.4290   21.6480 C.3   109  LEU109      0.0001
    116  N         73.4670    7.8600   25.9880 N.am  110  SER110     -0.1939
    117  CA        74.0490    8.8670   26.8700 C.3   110  SER110      0.2040
    118  C         74.9050    9.8130   26.0220 C.2   110  SER110      0.2485
    119  O         75.7770    9.3770   25.2740 O.2   110  SER110     -0.2729
    120  CB        74.9180    8.2010   27.9340 C.3   110  SER110      0.2129
    121  OG        76.0180    7.5410   27.3370 O.3   110  SER110     -0.2179
    122  N         74.6750   11.1250   26.1400 N.am  111  PRO111     -0.2715
    123  CA        75.4420   12.0970   25.3560 C.3   111  PRO111      0.1536
    124  C         76.9520   12.1340   25.5400 C.2   111  PRO111      0.2598
    125  O         77.4720   11.9270   26.6330 O.2   111  PRO111     -0.2715
    126  CB        74.7820   13.4310   25.7140 C.3   111  PRO111      0.0310
    127  CG        74.2580   13.1930   27.0900 C.3   111  PRO111      0.0237
    128  CD        73.6820   11.8020   26.9900 C.3   111  PRO111      0.0939
    129  N         77.6390   12.4030   24.4350 N.am  112  CYS112     -0.1968
    130  CA        79.0860   12.5220   24.4170 C.3   112  CYS112      0.1712
    131  C         79.4080   13.8790   25.0530 C.2   112  CYS112      0.2296
    132  O         78.5100   14.6830   25.3030 O.2   112  CYS112     -0.2864
    133  CB        79.5900   12.5030   22.9770 C.3   112  CYS112      0.0983
    134  SG        79.1550   13.9850   22.0280 S.3   112  CYS112     -0.0798
    135  N         77.9210   17.0250   23.3180 N.3   115  CYS115     -0.1235
    136  CA        76.4870   17.1870   23.5180 C.3   115  CYS115      0.1677
    137  C         76.1410   17.5240   24.9660 C.2   115  CYS115      0.2270
    138  O         75.2510   18.3340   25.2250 O.2   115  CYS115     -0.2867
    139  CB        75.7430   15.9250   23.0720 C.3   115  CYS115      0.0956
    140  SG        75.6330   15.7670   21.2700 S.3   115  CYS115     -0.0801
    141  N         76.6230    5.3370   26.0640 N.3   133  TYR133     -0.1241
    142  CA        77.4760    5.4360   24.8880 C.3   133  TYR133      0.1605
    143  C         78.7950    4.6980   25.0100 C.2   133  TYR133      0.2264
    144  O         79.4380    4.6840   26.0590 O.2   133  TYR133     -0.2867
    145  CB        77.7300    6.9060   24.5340 C.3   133  TYR133      0.0534
    146  CG        78.5670    7.1360   23.2860 C.ar  133  TYR133     -0.0201
    147  CD1       78.4590    6.2950   22.1740 C.ar  133  TYR133     -0.0009
    148  CD2       79.4370    8.2260   23.2020 C.ar  133  TYR133     -0.0009
    149  CE1       79.1950    6.5370   21.0110 C.ar  133  TYR133      0.0417
    150  CE2       80.1730    8.4790   22.0460 C.ar  133  TYR133      0.0417
    151  CZ        80.0480    7.6320   20.9550 C.ar  133  TYR133      0.1957
    152  OH        80.7700    7.8900   19.8140 O.3   133  TYR133     -0.2866
    153  N         81.8210    5.2600   23.7380 N.3   135  LYS135     -0.1245
    154  CA        82.9960    6.0560   24.0720 C.3   135  LYS135      0.1561
    155  C         82.8960    6.9910   25.2890 C.2   135  LYS135      0.2260
    156  O         83.7220    7.8910   25.4420 O.2   135  LYS135     -0.2867
    157  CB        83.4160    6.8480   22.8240 C.3   135  LYS135      0.0271
    158  CG        83.4480    5.9890   21.5530 C.3   135  LYS135      0.0035
    159  CD        83.7040    6.7970   20.2810 C.3   135  LYS135      0.0206
    160  CE        85.1900    7.0100   20.0140 C.3   135  LYS135      0.1093
    161  NZ        85.8680    7.7790   21.0980 N.3   135  LYS135     -0.1314
@<TRIPOS>BOND
     1     1     2    1
     2     2     3    1
     3     2     5    1
     4    80    81    1
     5    80    79    1
     6     3     4    2
     7    82    81   ar
     8    53    54    1
     9    81    83   ar
    10    54    57    1
    11    54    55    1
    12    75    76    1
    13    60    58   ar
    14    60    62   ar
    15    69    70    1
    16    57    58    1
    17    76    79    1
    18    76    77    1
    19    56    55    2
    20    58    59   ar
    21    70    71    1
    22    70    73    1
    23    62    61   ar
    24    55    63   am
    25     5     6    1
    26    37    36    2
    27     7     8    1
    28    42    43    1
    29    72    71    2
    30    73    74    1
    31    36    35    1
    32    77    78    2
    33    59    61   ar
    34    63    64    1
    35    43    44    1
    36    43    46    1
    37    44    45    2
    38     8    11    1
    39     8     9    1
    40    65    66    2
    41    65    64    1
    42    11    12    1
    43    64    67    1
    44    35    34    1
    45    35    38    1
    46    46    47    1
    47    41    39   am
    48     9    13   am
    49     9    10    2
    50    16    15    2
    51    39    40    2
    52    39    38    1
    53    13    14    1
    54    67    68    1
    55    47    48    1
    56    15    14    1
    57    14    17    1
    58    84    85    1
    59    48    49    1
    60    30    29    2
    61    27    28    1
    62    85    86    1
    63    85    88    1
    64    91    93   ar
    65    91    89   ar
    66    87    86    2
    67    86    94   am
    68    17    18    1
    69    49    50    2
    70    93    92   ar
    71    94    95    1
    72    95    98    1
    73    95    96    1
    74    29    28    1
    75    89    88    1
    76    89    90   ar
    77    19    18   ar
    78    19    21   ar
    79    28    31    1
    80    18    20   ar
    81    50    51    1
    82    50    52    1
    83    97    96    2
    84    33    31    1
    85    31    32    1
    86    92    90   ar
    87    96    99   am
    88    21    22   ar
    89    20    22   ar
    90    20    23   ar
    91   152   151    1
    92    22    24   ar
    93    99   100    1
    94    23    25   ar
    95   160   159    1
    96   160   161    1
    97   159   158    1
    98   101   102    2
    99   101   100    1
   100   100   103    1
   101   106   105   ar
   102   151   149   ar
   103   151   150   ar
   104   149   147   ar
   105    24    26   ar
   106    25    26   ar
   107   140   139    1
   108   158   157    1
   109   115   113    1
   110   134   133    1
   111   150   148   ar
   112   103   104    1
   113   105   104    1
   114   105   107   ar
   115   147   146   ar
   116   157   154    1
   117   112   113    1
   118   112   109    1
   119   133   130    1
   120   113   114    1
   121   139   136    1
   122   148   146   ar
   123   146   145    1
   124   135   136    1
   125   136   137    1
   126   108   109    1
   127   153   154    1
   128   154   155    1
   129   109   110    1
   130   130   129    1
   131   130   131    1
   132   129   124   am
   133   145   142    1
   134   111   110    2
   135   142   143    1
   136   142   141    1
   137   137   138    2
   138   110   116   am
   139   143   144    2
   140   131   132    2
   141   119   118    2
   142   155   156    2
   143   123   124    1
   144   123   126    1
   145   123   122    1
   146   124   125    2
   147   126   127    1
   148   116   117    1
   149   118   122   am
   150   118   117    1
   151   122   128    1
   152   117   120    1
   153   128   127    1
   154   121   120    1
