@<TRIPOS>MOLECULE
tmp/1vqwB00.pdb
 112 110 0 0 0
SMALL
GASTEIGER

@<TRIPOS>ATOM
      1  N         48.4210   22.7690   23.1220 N.3    38  ARG38      -0.1231
      2  CA        48.7770   22.2930   21.7920 C.3    38  ARG38       0.1694
      3  C         48.4610   20.8010   21.7200 C.2    38  ARG38       0.2593
      4  O         48.3170   20.1450   22.7560 O.2    38  ARG38      -0.2718
      5  CB        50.2740   22.5100   21.5150 C.3    38  ARG38       0.0321
      6  CG        50.6610   23.9550   21.2510 C.3    38  ARG38       0.0489
      7  CD        52.1580   24.1070   20.9850 C.3    38  ARG38       0.2205
      8  NE        52.4570   25.3690   20.3020 N.pl3  38  ARG38      -0.0865
      9  CZ        52.9610   26.4610   20.8810 C.cat  38  ARG38       0.5346
     10  NH1       53.2400   26.4700   22.1770 N.pl3  38  ARG38       0.1354
     11  NH2       53.1820   27.5510   20.1600 N.pl3  38  ARG38       0.1354
     12  N         48.3440   20.2740   20.5040 N.am   39  GLY39      -0.1942
     13  CA        48.0610   18.8590   20.3270 C.3    39  GLY39       0.2014
     14  C         49.3110   18.0220   20.5540 C.2    39  GLY39       0.2639
     15  O         49.2350   16.8000   20.6770 O.2    39  GLY39      -0.2714
     16  N         50.4640   18.6870   20.6210 N.am   40  SER40      -0.1949
     17  CA        51.7480   18.0150   20.8400 C.3    40  SER40       0.1924
     18  C         52.6850   18.8030   21.7730 C.2    40  SER40       0.2314
     19  O         52.5740   20.0270   21.9060 O.2    40  SER40      -0.2863
     20  CB        52.4580   17.7970   19.5010 C.3    40  SER40       0.2116
     21  OG        52.7000   19.0340   18.8580 O.3    40  SER40      -0.2180
     22  N         58.8490   24.8720   19.8200 N.3    45  TRP45      -0.1227
     23  CA        59.4820   24.1000   18.7700 C.3    45  TRP45       0.1737
     24  C         58.4710   23.3730   17.8710 C.2    45  TRP45       0.2595
     25  O         58.8130   22.4560   17.1480 O.2    45  TRP45      -0.2718
     26  CB        60.5270   23.1540   19.3680 C.3    45  TRP45       0.0564
     27  CG        61.5830   23.9410   20.0530 C.ar   45  TRP45       0.0003
     28  CD1       61.6170   24.2840   21.3730 C.ar   45  TRP45       0.0946
     29  CD2       62.6460   24.6710   19.4270 C.ar   45  TRP45       0.0152
     30  NE1       62.6150   25.1930   21.6060 N.ar   45  TRP45      -0.2442
     31  CE2       63.2710   25.4530   20.4190 C.ar   45  TRP45       0.0810
     32  CE3       63.1360   24.7450   18.1110 C.ar   45  TRP45       0.0012
     33  CZ2       64.3450   26.3010   20.1600 C.ar   45  TRP45       0.0191
     34  CZ3       64.2140   25.5870   17.8380 C.ar   45  TRP45       0.0001
     35  CH2       64.8050   26.3560   18.8660 C.ar   45  TRP45       0.0015
     36  N         57.2200   23.8030   17.9300 N.am   46  ASN46      -0.1960
     37  CA        56.1880   23.2590   17.0810 C.3    46  ASN46       0.1819
     38  C         56.0180   24.3210   15.9830 C.2    46  ASN46       0.2621
     39  O         55.1430   25.1830   16.0790 O.2    46  ASN46      -0.2715
     40  CB        54.8720   23.0900   17.8540 C.3    46  ASN46       0.1195
     41  CG        54.8450   21.8320   18.7130 C.2    46  ASN46       0.2630
     42  OD1       55.1520   21.8750   19.8970 O.2    46  ASN46      -0.2716
     43  ND2       54.4820   20.7080   18.1140 N.am   46  ASN46      -0.0877
     44  N         56.8630   24.2730   14.9510 N.am   47  TYR47      -0.1960
     45  CA        56.7820   25.2490   13.8640 C.3    47  TYR47       0.1771
     46  C         55.3910   25.3140   13.2160 C.2    47  TYR47       0.2620
     47  O         54.8120   24.2850   12.8730 O.2    47  TYR47      -0.2715
     48  CB        57.8170   24.9380   12.7800 C.3    47  TYR47       0.0574
     49  CG        57.8240   25.9870   11.6780 C.ar   47  TYR47      -0.0198
     50  CD1       58.3700   27.2550   11.9020 C.ar   47  TYR47      -0.0009
     51  CD2       57.2180   25.7400   10.4390 C.ar   47  TYR47      -0.0009
     52  CE1       58.3110   28.2510   10.9250 C.ar   47  TYR47       0.0417
     53  CE2       57.1510   26.7310    9.4560 C.ar   47  TYR47       0.0417
     54  CZ        57.6970   27.9850    9.7100 C.ar   47  TYR47       0.1957
     55  OH        57.5960   28.9800    8.7640 O.3    47  TYR47      -0.2866
     56  N         54.8710   26.5240   13.0270 N.am   48  THR48      -0.1951
     57  CA        53.5510   26.6970   12.4240 C.3    48  THR48       0.1897
     58  C         53.5210   27.7240   11.3010 C.2    48  THR48       0.2313
     59  O         53.8670   28.8890   11.5120 O.2    48  THR48      -0.2863
     60  CB        52.5190   27.1330   13.4610 C.3    48  THR48       0.1794
     61  OG1       52.9390   28.3590   14.0670 O.3    48  THR48      -0.2208
     62  CG2       52.3700   26.0750   14.5270 C.3    48  THR48       0.0378
     63  N         44.9990   25.4320   16.5560 N.3    77  VAL77      -0.1231
     64  CA        46.4340   25.6510   16.4340 C.3    77  VAL77       0.1692
     65  C         46.8930   26.8990   17.1910 C.2    77  VAL77       0.2592
     66  O         46.3050   27.9760   17.0650 O.2    77  VAL77      -0.2718
     67  CB        46.8600   25.7990   14.9570 C.3    77  VAL77       0.0266
     68  CG1       48.2810   26.3480   14.8760 C.3    77  VAL77       0.0020
     69  CG2       46.7760   24.4460   14.2540 C.3    77  VAL77       0.0020
     70  N         47.9470   26.7400   17.9840 N.am   78  TYR78      -0.1976
     71  CA        48.5160   27.8430   18.7410 C.3    78  TYR78       0.1639
     72  C         49.8240   28.1660   18.0330 C.2    78  TYR78       0.2290
     73  O         50.8390   27.5050   18.2330 O.2    78  TYR78      -0.2864
     74  CB        48.7450   27.4090   20.1810 C.3    78  TYR78       0.0560
     75  CG        47.4610   27.2790   20.9750 C.ar   78  TYR78      -0.0198
     76  CD1       47.0110   28.3260   21.7920 C.ar   78  TYR78      -0.0009
     77  CD2       46.6880   26.1140   20.9090 C.ar   78  TYR78      -0.0009
     78  CE1       45.8270   28.2160   22.5250 C.ar   78  TYR78       0.0417
     79  CE2       45.4980   25.9940   21.6380 C.ar   78  TYR78       0.0417
     80  CZ        45.0770   27.0510   22.4430 C.ar   78  TYR78       0.1957
     81  OH        43.9110   26.9480   23.1670 O.3    78  TYR78      -0.2866
     82  N         66.1280   24.4780   13.3550 N.3   111  ARG111     -0.1245
     83  CA        65.1010   24.0900   14.2950 C.3   111  ARG111      0.1563
     84  C         64.6350   22.6660   14.0830 C.2   111  ARG111      0.2260
     85  O         64.1470   22.0450   15.0210 O.2   111  ARG111     -0.2867
     86  CB        63.9080   25.0440   14.2220 C.3   111  ARG111      0.0307
     87  CG        63.3170   25.2030   12.8400 C.3   111  ARG111      0.0489
     88  CD        62.0900   26.1220   12.8710 C.3   111  ARG111      0.2205
     89  NE        61.6750   26.4300   11.5180 N.pl3 111  ARG111     -0.0865
     90  CZ        61.1180   25.5260   10.7220 C.cat 111  ARG111      0.5346
     91  NH1       60.9000   24.2870   11.1630 N.pl3 111  ARG111      0.1354
     92  NH2       60.8250   25.8430    9.4760 N.pl3 111  ARG111      0.1354
     93  N         63.4980   20.4450   17.0320 N.3   115  GLN115     -0.1245
     94  CA        62.1180   19.9660   17.0820 C.3   115  GLN115      0.1566
     95  C         62.1820   18.4490   17.2270 C.2   115  GLN115      0.2260
     96  O         61.4220   17.8550   17.9960 O.2   115  GLN115     -0.2867
     97  CB        61.3650   20.3510   15.8040 C.3   115  GLN115      0.0367
     98  CG        61.1370   21.8570   15.6680 C.3   115  GLN115      0.0905
     99  CD        60.7260   22.2650   14.2710 C.2   115  GLN115      0.2608
    100  OE1       59.8520   21.6520   13.6720 O.2   115  GLN115     -0.2717
    101  NE2       61.3470   23.3120   13.7490 N.am  115  GLN115     -0.0878
    102  N         60.8870   16.1030   20.3600 N.3   119  ARG119     -0.1245
    103  CA        60.0230   14.9570   20.0790 C.3   119  ARG119      0.1563
    104  C         60.5540   13.7230   20.8080 C.2   119  ARG119      0.2260
    105  O         59.8120   13.0340   21.5140 O.2   119  ARG119     -0.2867
    106  CB        59.9710   14.6770   18.5670 C.3   119  ARG119      0.0307
    107  CG        58.9640   13.5910   18.1600 C.3   119  ARG119      0.0489
    108  CD        59.0470   13.2890   16.6670 C.3   119  ARG119      0.2205
    109  NE        60.1070   12.3410   16.3330 N.pl3 119  ARG119     -0.0865
    110  CZ        60.0380   11.0370   16.5600 C.cat 119  ARG119      0.5346
    111  NH1       58.9610   10.5080   17.1200 N.pl3 119  ARG119      0.1354
    112  NH2       61.0550   10.2640   16.2310 N.pl3 119  ARG119      0.1354
@<TRIPOS>BOND
     1    55    54    1
     2    53    54   ar
     3    53    51   ar
     4    92    90    1
     5    54    52   ar
     6    51    49   ar
     7    90    91    1
     8    90    89    2
     9    52    50   ar
    10    58    59    2
    11    58    57    1
    12    89    88    1
    13    49    50   ar
    14    49    48    1
    15    57    56    1
    16    57    60    1
    17    48    45    1
    18    87    88    1
    19    87    86    1
    20    47    46    2
    21    56    46   am
    22    46    45    1
    23    82    83    1
    24    60    61    1
    25    60    62    1
    26   100    99    2
    27   101    99   am
    28    45    44    1
    29    84    83    1
    30    84    85    2
    31    86    83    1
    32    69    67    1
    33    99    98    1
    34    68    67    1
    35    44    38   am
    36    67    64    1
    37    98    97    1
    38    97    94    1
    39    38    39    2
    40    38    37    1
    41   112   110    1
    42   109   110    2
    43   109   108    1
    44    64    63    1
    45    64    65    1
    46   110   111    1
    47   108   107    1
    48    93    94    1
    49    66    65    2
    50    37    40    1
    51    37    36    1
    52    94    95    1
    53    25    24    2
    54    65    70   am
    55    95    96    2
    56    34    32   ar
    57    34    35   ar
    58    40    41    1
    59    24    36   am
    60    24    23    1
    61    70    71    1
    62    72    73    2
    63    72    71    1
    64    32    29   ar
    65    43    41   am
    66   107   106    1
    67   106   103    1
    68    41    42    2
    69    71    74    1
    70    23    26    1
    71    23    22    1
    72    21    20    1
    73    35    33   ar
    74    26    27    1
    75    29    27   ar
    76    29    31   ar
    77    20    17    1
    78    27    28   ar
    79   103   102    1
    80   103   104    1
    81    33    31   ar
    82    11     9    1
    83    74    75    1
    84     8     9    2
    85     8     7    1
    86    13    12    1
    87    13    14    1
    88    31    30   ar
    89    12     3   am
    90    14    16   am
    91    14    15    2
    92    16    17    1
    93   104   105    2
    94    17    18    1
    95     9    10    1
    96    77    75   ar
    97    77    79   ar
    98    75    76   ar
    99     7     6    1
   100     6     5    1
   101    28    30   ar
   102     5     2    1
   103    79    80   ar
   104     3     2    1
   105     3     4    2
   106    18    19    2
   107     2     1    1
   108    76    78   ar
   109    80    78   ar
   110    80    81    1
