@<TRIPOS>MOLECULE
tmp/1vr0C00.pdb
 128 120 0 0 0
SMALL
GASTEIGER

@<TRIPOS>ATOM
      1  N         14.2590   43.2290  137.0410 N.3    27  ASP27      -0.1239
      2  CA        12.9000   43.7800  136.9280 C.3    27  ASP27       0.1674
      3  C         12.1540   42.8500  136.0120 C.2    27  ASP27       0.2266
      4  O         11.9770   43.1450  134.8270 O.2    27  ASP27      -0.2867
      5  CB        12.8900   45.2090  136.3670 C.3    27  ASP27       0.1410
      6  CG        11.5190   45.8950  136.5020 C.2    27  ASP27       0.3668
      7  OD1       10.8390   45.7060  137.5400 O.co2  27  ASP27      -0.2456
      8  OD2       11.1350   46.6400  135.5830 O.co2  27  ASP27      -0.2456
      9  N          9.1540   41.7010  135.5290 N.3    28  LEU28      -0.1231
     10  CA         7.8920   42.0790  134.9370 C.3    28  LEU28       0.1693
     11  C          7.9560   43.5760  134.7420 C.2    28  LEU28       0.2591
     12  O          7.4450   44.3100  135.5990 O.2    28  LEU28      -0.2718
     13  CB         6.7270   41.7320  135.8700 C.3    28  LEU28       0.0284
     14  CG         6.3250   40.2610  135.9750 C.3    28  LEU28       0.0019
     15  CD1        5.1290   40.1080  136.9260 C.3    28  LEU28       0.0001
     16  CD2        6.0030   39.6400  134.5820 C.3    28  LEU28       0.0001
     17  N          8.5540   44.0580  133.6420 N.am   29  ARG29      -0.1980
     18  CA         9.0310   43.2550  132.4900 C.3    29  ARG29       0.1597
     19  C         10.3790   43.6920  131.9030 C.2    29  ARG29       0.2287
     20  O         10.9120   43.0140  131.0290 O.2    29  ARG29      -0.2864
     21  CB         7.9990   43.3000  131.3720 C.3    29  ARG29       0.0334
     22  CG         6.7060   42.5760  131.6700 C.3    29  ARG29       0.0492
     23  CD         5.6480   42.9270  130.6100 C.3    29  ARG29       0.2205
     24  NE         5.2160   44.3250  130.7120 N.pl3  29  ARG29      -0.0865
     25  CZ         4.5830   45.0090  129.7590 C.cat  29  ARG29       0.5346
     26  NH1        4.2530   46.2780  129.9740 N.pl3  29  ARG29       0.1354
     27  NH2        4.2740   44.4430  128.5920 N.pl3  29  ARG29       0.1354
     28  N          8.0390   51.7620  128.5990 N.3    70  GLU70      -0.1245
     29  CA         6.6970   52.1170  129.0590 C.3    70  GLU70       0.1567
     30  C          6.6500   53.2100  130.1230 C.2    70  GLU70       0.2260
     31  O          7.6610   53.5210  130.7620 O.2    70  GLU70      -0.2867
     32  CB         6.0000   50.8730  129.6210 C.3    70  GLU70       0.0388
     33  CG         6.8160   50.1230  130.7050 C.3    70  GLU70       0.1160
     34  CD         6.9380   50.8570  132.0680 C.2    70  GLU70       0.3649
     35  OE1        6.0700   51.6940  132.4150 O.co2  70  GLU70      -0.2457
     36  OE2        7.9070   50.5740  132.8110 O.co2  70  GLU70      -0.2457
     37  N          3.6930   53.5790  133.2650 N.3    72  LYS72      -0.1231
     38  CA         2.5150   52.9460  133.8930 C.3    72  LYS72       0.1693
     39  C          2.1540   51.6020  133.2180 C.2    72  LYS72       0.2592
     40  O          0.9980   51.1660  133.2340 O.2    72  LYS72      -0.2718
     41  CB         1.3010   53.9020  133.8920 C.3    72  LYS72       0.0285
     42  CG         1.4390   55.1110  134.8140 C.3    72  LYS72       0.0035
     43  CD         0.1760   55.9630  134.7730 C.3    72  LYS72       0.0206
     44  CE         0.1350   57.0050  135.8780 C.3    72  LYS72       0.1093
     45  NZ        -1.0090   57.9380  135.6510 N.3    72  LYS72      -0.1314
     46  N          3.1550   50.9560  132.6220 N.am   73  GLY73      -0.1957
     47  CA         2.9440   49.7290  131.8610 C.3    73  GLY73       0.1869
     48  C          2.4960   49.9250  130.4190 C.2    73  GLY73       0.2309
     49  O          2.4430   48.9570  129.6610 O.2    73  GLY73      -0.2863
     50  N          6.5540   47.4580  126.3340 N.3    83  ASN83      -0.1240
     51  CA         7.4770   46.7270  127.1860 C.3    83  ASN83       0.1653
     52  C          7.1220   45.2420  127.2990 C.2    83  ASN83       0.2266
     53  O          7.4630   44.5890  128.2840 O.2    83  ASN83      -0.2867
     54  CB         7.5360   47.3900  128.5640 C.3    83  ASN83       0.1155
     55  CG         8.8790   47.2080  129.2320 C.2    83  ASN83       0.2627
     56  OD1        9.9240   47.3940  128.6100 O.2    83  ASN83      -0.2716
     57  ND2        8.8630   46.8370  130.5060 N.am   83  ASN83      -0.0877
     58  N         12.0230   52.9070  131.1300 N.3   100  THR100     -0.1203
     59  CA        10.9450   52.2290  131.8440 C.3   100  THR100      0.1994
     60  C         10.7270   52.8340  133.2250 C.2   100  THR100      0.2619
     61  O         11.5200   53.6710  133.7060 O.2   100  THR100     -0.2717
     62  CB        11.1980   50.6920  131.9450 C.3   100  THR100      0.1784
     63  OG1       12.4830   50.4290  132.5160 O.3   100  THR100     -0.2211
     64  CG2       11.1480   50.0480  130.5660 C.3   100  THR100      0.0376
     65  N          9.6350   52.4150  133.8580 N.am  101  THR101     -0.1938
     66  CA         9.2820   52.9220  135.1770 C.3   101  THR101      0.2028
     67  C         10.3340   52.4870  136.2420 C.2   101  THR101      0.2642
     68  O         10.8510   53.3240  136.9560 O.2   101  THR101     -0.2714
     69  CB         7.7940   52.6090  135.5250 C.3   101  THR101      0.1808
     70  OG1        6.9300   53.2810  134.5900 O.3   101  THR101     -0.2208
     71  CG2        7.4460   53.0870  136.9330 C.3   101  THR101      0.0379
     72  N         10.7190   51.2100  136.2740 N.am  102  ASN102     -0.1971
     73  CA        11.5810   50.6670  137.3640 C.3   102  ASN102      0.1688
     74  C         12.9730   50.2080  136.8760 C.2   102  ASN102      0.2292
     75  O         14.0130   50.7150  137.3330 O.2   102  ASN102     -0.2864
     76  CB        10.9300   49.4530  138.0590 C.3   102  ASN102      0.1181
     77  CG         9.4130   49.5440  138.1570 C.2   102  ASN102      0.2629
     78  OD1        8.8710   50.5380  138.6580 O.2   102  ASN102     -0.2716
     79  ND2        8.7150   48.4730  137.6990 N.am  102  ASN102     -0.0877
     80  N          7.9090   51.2230  141.6670 N.3   146  TYR146     -0.1241
     81  CA         7.6880   52.5460  142.2370 C.3   146  TYR146      0.1605
     82  C          8.4320   52.6500  143.5570 C.2   146  TYR146      0.2264
     83  O          7.8570   53.0890  144.5290 O.2   146  TYR146     -0.2867
     84  CB         6.1680   52.8400  142.3870 C.3   146  TYR146      0.0534
     85  CG         5.4440   52.9200  141.0460 C.ar  146  TYR146     -0.0201
     86  CD1        5.1850   54.1450  140.4330 C.ar  146  TYR146     -0.0009
     87  CD2        5.0580   51.7530  140.3700 C.ar  146  TYR146     -0.0009
     88  CE1        4.5360   54.2090  139.1780 C.ar  146  TYR146      0.0417
     89  CE2        4.4310   51.7920  139.1220 C.ar  146  TYR146      0.0417
     90  CZ         4.1580   53.0170  138.5200 C.ar  146  TYR146      0.1957
     91  OH         3.5220   53.0430  137.2580 O.3   146  TYR146     -0.2866
     92  N          2.0520   44.3620  142.2670 N.3   197  HIS197     -0.1241
     93  CA         2.3240   44.5960  140.8560 C.3   197  HIS197      0.1621
     94  C          1.5830   43.6360  139.9350 C.2   197  HIS197      0.2264
     95  O          1.1730   44.0060  138.8360 O.2   197  HIS197     -0.2867
     96  CB         3.8150   44.4290  140.6100 C.3   197  HIS197      0.0745
     97  CG         4.2620   44.8940  139.2610 C.ar  197  HIS197      0.0817
     98  ND1        3.9230   46.1310  138.7510 N.ar  197  HIS197     -0.2268
     99  CD2        5.0520   44.3040  138.3320 C.ar  197  HIS197      0.1154
    100  CE1        4.4790   46.2770  137.5630 C.ar  197  HIS197      0.1986
    101  NE2        5.1640   45.1800  137.2820 N.ar  197  HIS197     -0.2212
    102  N         -1.6130   44.9570  138.7740 N.3   200  ARG200     -0.1231
    103  CA        -1.4200   45.9280  137.7010 C.3   200  ARG200      0.1694
    104  C         -1.2270   45.2490  136.3460 C.2   200  ARG200      0.2591
    105  O         -1.8360   45.6390  135.3590 O.2   200  ARG200     -0.2718
    106  CB        -0.2110   46.8140  137.9980 C.3   200  ARG200      0.0321
    107  CG        -0.0260   47.9710  137.0260 C.3   200  ARG200      0.0489
    108  CD        -1.2200   48.9230  137.0430 C.3   200  ARG200      0.2205
    109  NE        -1.0790   49.9550  136.0220 N.pl3 200  ARG200     -0.0865
    110  CZ        -2.0840   50.5090  135.3430 C.cat 200  ARG200      0.5346
    111  NH1       -3.3440   50.1430  135.5510 N.pl3 200  ARG200      0.1354
    112  NH2       -1.8190   51.4360  134.4360 N.pl3 200  ARG200      0.1354
    113  N         -0.3620   44.2430  136.3180 N.am  201  ILE201     -0.1980
    114  CA        -0.1310   43.4250  135.1340 C.3   201  ILE201      0.1595
    115  C         -1.4520   42.8580  134.6060 C.2   201  ILE201      0.2287
    116  O         -1.6960   42.8390  133.4040 O.2   201  ILE201     -0.2864
    117  CB         0.8080   42.2330  135.4730 C.3   201  ILE201      0.0276
    118  CG1        2.2380   42.7030  135.7490 C.3   201  ILE201      0.0022
    119  CG2        0.8210   41.1910  134.3740 C.3   201  ILE201      0.0022
    120  CD1        2.8680   43.5760  134.6840 C.3   201  ILE201      0.0001
    121  N         -3.8460   45.3950  133.0250 N.3   203  LEU203     -0.1245
    122  CA        -3.3790   45.7680  131.6840 C.3   203  LEU203      0.1561
    123  C         -3.5830   44.6600  130.6300 C.2   203  LEU203      0.2260
    124  O         -3.2630   44.8660  129.4710 O.2   203  LEU203     -0.2867
    125  CB        -1.9100   46.2040  131.7410 C.3   203  LEU203      0.0270
    126  CG        -1.6520   47.5290  132.4810 C.3   203  LEU203      0.0019
    127  CD1       -0.1750   47.7320  132.7800 C.3   203  LEU203      0.0001
    128  CD2       -2.1690   48.7150  131.6960 C.3   203  LEU203      0.0001
@<TRIPOS>BOND
     1    50    51    1
     2    51    52    1
     3    51    54    1
     4    52    53    2
     5    54    55    1
     6    27    25    1
     7    28    29    1
     8    56    55    2
     9    29    32    1
    10    29    30    1
    11    55    57   am
    12   124   123    2
    13    32    33    1
    14    49    48    2
    15    25    26    1
    16    25    24    2
    17    30    31    2
    18    48    47    1
    19    64    62    1
    20    23    24    1
    21    23    22    1
    22   123   122    1
    23    33    34    1
    24    20    19    2
    25    58    59    1
    26    21    22    1
    27    21    18    1
    28   122   125    1
    29   122   121    1
    30   128   126    1
    31   125   126    1
    32    59    62    1
    33    59    60    1
    34    47    46    1
    35    19    18    1
    36    62    63    1
    37    34    35   ar
    38    34    36   ar
    39   126   127    1
    40    18    17    1
    41    46    39   am
    42    39    40    2
    43    39    38    1
    44    60    61    2
    45    60    65   am
    46    37    38    1
    47   116   115    2
    48    17    11   am
    49    65    66    1
    50    41    38    1
    51    41    42    1
    52   119   117    1
    53   112   110    1
    54    16    14    1
    55    70    69    1
    56   115   114    1
    57   120   118    1
    58    11    10    1
    59    11    12    2
    60    43    42    1
    61    43    44    1
    62     4     3    2
    63    10     9    1
    64    10    13    1
    65   114   117    1
    66   114   113    1
    67    66    69    1
    68    66    67    1
    69   110   111    1
    70   110   109    2
    71   105   104    2
    72   117   118    1
    73    69    71    1
    74     8     6   ar
    75    45    44    1
    76    13    14    1
    77    14    15    1
    78     3     2    1
    79   109   108    1
    80    67    72   am
    81    67    68    2
    82    72    73    1
    83   113   104   am
    84   104   103    1
    85     5     6    1
    86     5     2    1
    87     6     7   ar
    88    74    75    2
    89    74    73    1
    90     2     1    1
    91   107   108    1
    92   107   106    1
    93    91    90    1
    94   101   100   ar
    95   101    99   ar
    96    73    76    1
    97   100    98   ar
    98    79    77   am
    99   103   106    1
   100   103   102    1
   101    76    77    1
   102    77    78    2
   103    99    97   ar
   104    90    89   ar
   105    90    88   ar
   106    98    97   ar
   107    95    94    2
   108    89    87   ar
   109    88    86   ar
   110    97    96    1
   111    94    93    1
   112    87    85   ar
   113    86    85   ar
   114    96    93    1
   115    93    92    1
   116    85    84    1
   117    80    81    1
   118    81    84    1
   119    81    82    1
   120    82    83    2
