@<TRIPOS>MOLECULE
tmp/1vrhA00.pdb
 210 199 0 0 0
SMALL
GASTEIGER

@<TRIPOS>ATOM
      1  N         43.0610    0.7330  131.0530 N.3    88  ILE88      -0.1231
      2  CA        42.7960    1.5270  129.8760 C.3    88  ILE88       0.1692
      3  C         41.5980    2.4260  130.0850 C.2    88  ILE88       0.2592
      4  O         40.5410    1.9820  130.5540 O.2    88  ILE88      -0.2718
      5  CB        42.5620    0.5640  128.7220 C.3    88  ILE88       0.0266
      6  CG1       43.7840   -0.3000  128.4090 C.3    88  ILE88       0.0019
      7  CG2       42.2090    1.2740  127.4130 C.3    88  ILE88       0.0020
      8  CD1       44.4720    0.0880  127.0980 C.3    88  ILE88       0.0001
      9  N         41.8840    3.6300  129.7100 N.am   89  ASN89      -0.1960
     10  CA        40.9920    4.7700  129.7350 C.3    89  ASN89       0.1819
     11  C         41.7370    5.8550  128.9960 C.2    89  ASN89       0.2621
     12  O         42.9360    5.7230  128.7190 O.2    89  ASN89      -0.2715
     13  CB        40.6980    5.1730  131.1850 C.3    89  ASN89       0.1195
     14  CG        41.7820    6.0720  131.7950 C.2    89  ASN89       0.2630
     15  OD1       41.8840    7.2460  131.4390 O.2    89  ASN89      -0.2716
     16  ND2       42.6060    5.5890  132.7070 N.am   89  ASN89      -0.0877
     17  N         41.0590    6.9120  128.6650 N.am   90  LEU90      -0.1963
     18  CA        41.7190    8.0070  127.9540 C.3    90  LEU90       0.1728
     19  C         41.6690    9.3310  128.7970 C.2    90  LEU90       0.2616
     20  O         42.4210   10.2770  128.5280 O.2    90  LEU90      -0.2715
     21  CB        41.0400    8.2430  126.5760 C.3    90  LEU90       0.0311
     22  CG        41.6220    7.4370  125.3750 C.3    90  LEU90       0.0022
     23  CD1       41.6430    8.2300  124.0570 C.3    90  LEU90       0.0001
     24  CD2       43.0580    6.9560  125.5750 C.3    90  LEU90       0.0001
     25  N         40.8010    9.3710  129.8480 N.am   91  SER91      -0.1950
     26  CA        40.5000   10.6230  130.6740 C.3    91  SER91       0.1924
     27  C         41.3430   10.8700  131.9640 C.2    91  SER91       0.2314
     28  O         40.9170   11.6010  132.8830 O.2    91  SER91      -0.2863
     29  CB        39.0590   10.5840  131.2060 C.3    91  SER91       0.2116
     30  OG        38.9490    9.6200  132.2500 O.3    91  SER91      -0.2180
     31  N         41.7670   14.8370  127.3090 N.3    97  ARG97      -0.1245
     32  CA        40.3960   14.6960  127.8640 C.3    97  ARG97       0.1563
     33  C         39.5330   15.8780  127.5790 C.2    97  ARG97       0.2260
     34  O         38.3390   15.7390  127.1420 O.2    97  ARG97      -0.2867
     35  CB        40.4240   14.3220  129.3240 C.3    97  ARG97       0.0307
     36  CG        39.0110   14.0580  129.8900 C.3    97  ARG97       0.0489
     37  CD        39.1660   13.7620  131.3510 C.3    97  ARG97       0.2205
     38  NE        37.8690   13.7870  132.0290 N.pl3  97  ARG97      -0.0865
     39  CZ        37.7520   13.3030  133.2760 C.cat  97  ARG97       0.5346
     40  NH1       38.7760   12.8580  133.9940 N.pl3  97  ARG97       0.1354
     41  NH2       36.5010   13.2320  133.7510 N.pl3  97  ARG97       0.1354
     42  N         38.3450   15.6930  123.9180 N.3   100  LEU100     -0.1231
     43  CA        37.3100   14.7360  123.6070 C.3   100  LEU100      0.1693
     44  C         35.9610   15.1480  124.1930 C.2   100  LEU100      0.2591
     45  O         34.9180   14.7940  123.6260 O.2   100  LEU100     -0.2718
     46  CB        37.6460   13.3490  124.1010 C.3   100  LEU100      0.0284
     47  CG        38.6910   12.5820  123.4710 C.3   100  LEU100      0.0019
     48  CD1       39.2940   11.5330  124.4120 C.3   100  LEU100      0.0001
     49  CD2       38.1120   11.8060  122.2800 C.3   100  LEU100      0.0001
     50  N         35.9950   15.8150  125.3340 N.am  101  GLU101     -0.1979
     51  CA        34.6610   16.0080  126.0320 C.3   101  GLU101      0.1602
     52  C         33.9580   17.2230  125.5130 C.2   101  GLU101      0.2287
     53  O         33.0590   17.7400  126.1670 O.2   101  GLU101     -0.2864
     54  CB        34.7760   15.9670  127.4960 C.3   101  GLU101      0.0415
     55  CG        35.4770   14.7430  128.1850 C.3   101  GLU101      0.1163
     56  CD        35.4040   14.8960  129.6580 C.2   101  GLU101      0.3649
     57  OE1       35.0390   16.1810  129.8850 O.co2 101  GLU101     -0.2457
     58  OE2       35.5110   14.1220  130.5610 O.co2 101  GLU101     -0.2457
     59  N         31.6380    9.5860  120.6320 N.3   106  VAL106     -0.1301
     60  CA        32.8630    9.7770  119.7030 C.3   106  VAL106      0.1246
     61  C         33.1260    8.4210  119.1970 C.3   106  VAL106      0.2009
     62  O         32.8270    7.4360  119.9740 O.3   106  VAL106     -0.2188
     63  CB        33.7910   10.4600  120.7150 C.3   106  VAL106      0.0202
     64  CG1       34.8240    9.6020  121.3160 C.3   106  VAL106      0.0016
     65  CG2       34.2420   11.7460  120.1250 C.3   106  VAL106      0.0016
     66  N         36.1270    6.1420  116.8490 N.3   108  PHE108     -0.1241
     67  CA        37.3940    6.2470  116.1280 C.3   108  PHE108      0.1605
     68  C         38.2130    4.9950  116.2830 C.2   108  PHE108      0.2264
     69  O         37.8920    4.1900  117.1770 O.2   108  PHE108     -0.2867
     70  CB        38.1020    7.5260  116.5820 C.3   108  PHE108      0.0534
     71  CG        38.2610    7.6810  118.0530 C.ar  108  PHE108     -0.0203
     72  CD1       39.0930    6.8500  118.7820 C.ar  108  PHE108     -0.0042
     73  CD2       37.6210    8.7050  118.7370 C.ar  108  PHE108     -0.0042
     74  CE1       39.2670    6.9790  120.1450 C.ar  108  PHE108     -0.0003
     75  CE2       37.7630    8.8380  120.1150 C.ar  108  PHE108     -0.0003
     76  CZ        38.5810    7.9560  120.8090 C.ar  108  PHE108     -0.0000
     77  N         42.1160    3.5640  117.1060 N.3   110  SER110     -0.1217
     78  CA        43.1990    4.1420  117.8910 C.3   110  SER110      0.1889
     79  C         44.5030    3.7170  117.3240 C.2   110  SER110      0.2288
     80  O         44.5950    2.5400  116.9230 O.2   110  SER110     -0.2866
     81  CB        43.1250    3.6740  119.3290 C.3   110  SER110      0.2089
     82  OG        41.8100    4.1030  119.7750 O.3   110  SER110     -0.2183
     83  N         48.3560    3.5640  118.6720 N.3   112  TYR112     -0.1241
     84  CA        49.1800    3.8320  119.8280 C.3   112  TYR112      0.1605
     85  C         50.6240    3.7180  119.5370 C.2   112  TYR112      0.2264
     86  O         51.0360    2.9270  118.6830 O.2   112  TYR112     -0.2867
     87  CB        48.9900    2.7950  120.8770 C.3   112  TYR112      0.0534
     88  CG        47.7880    3.0530  121.7120 C.ar  112  TYR112     -0.0201
     89  CD1       46.5530    3.0690  121.1010 C.ar  112  TYR112     -0.0009
     90  CD2       47.9490    3.2810  123.0720 C.ar  112  TYR112     -0.0009
     91  CE1       45.4330    3.2520  121.8720 C.ar  112  TYR112      0.0417
     92  CE2       46.8190    3.4490  123.8570 C.ar  112  TYR112      0.0417
     93  CZ        45.5600    3.4150  123.2530 C.ar  112  TYR112      0.1957
     94  OH        44.4620    3.4880  124.0150 O.3   112  TYR112     -0.2866
     95  N         47.9900   -7.0370  125.5780 N.3   136  TYR136     -0.1241
     96  CA        46.5860   -6.5090  125.6250 C.3   136  TYR136      0.1605
     97  C         45.6960   -7.5890  126.2580 C.2   136  TYR136      0.2264
     98  O         45.4930   -8.6660  125.6770 O.2   136  TYR136     -0.2867
     99  CB        45.9370   -6.1490  124.2680 C.3   136  TYR136      0.0534
    100  CG        44.4280   -5.8540  124.4430 C.ar  136  TYR136     -0.0201
    101  CD1       43.9880   -5.0850  125.5330 C.ar  136  TYR136     -0.0009
    102  CD2       43.4770   -6.3500  123.5330 C.ar  136  TYR136     -0.0009
    103  CE1       42.6220   -4.8180  125.7120 C.ar  136  TYR136      0.0417
    104  CE2       42.1110   -6.0830  123.7140 C.ar  136  TYR136      0.0417
    105  CZ        41.6840   -5.3170  124.8040 C.ar  136  TYR136      0.1957
    106  OH        40.3590   -5.0570  124.9820 O.3   136  TYR136     -0.2866
    107  N         51.1580    0.1810  116.9780 N.3   170  PHE170     -0.1241
    108  CA        50.1990   -0.7980  116.3610 C.3   170  PHE170      0.1605
    109  C         48.8940   -0.0300  116.4660 C.2   170  PHE170      0.2264
    110  O         48.8080    0.9880  117.1690 O.2   170  PHE170     -0.2867
    111  CB        50.1840   -2.0880  117.1060 C.3   170  PHE170      0.0534
    112  CG        49.9530   -1.9150  118.6020 C.ar  170  PHE170     -0.0203
    113  CD1       51.0410   -1.7120  119.4560 C.ar  170  PHE170     -0.0042
    114  CD2       48.6530   -1.9630  119.1130 C.ar  170  PHE170     -0.0042
    115  CE1       50.8290   -1.5550  120.8280 C.ar  170  PHE170     -0.0003
    116  CE2       48.4400   -1.8060  120.4860 C.ar  170  PHE170     -0.0003
    117  CZ        49.5280   -1.6020  121.3440 C.ar  170  PHE170     -0.0000
    118  N         44.5950   -0.3440  116.9680 N.3   172  VAL172     -0.1231
    119  CA        43.4960   -1.2140  117.3630 C.3   172  VAL172      0.1681
    120  C         42.1860   -0.7160  116.7790 C.2   172  VAL172      0.2471
    121  O         41.8640    0.4820  116.8510 O.2   172  VAL172     -0.2730
    122  CB        43.4180   -1.2530  118.8840 C.3   172  VAL172      0.0265
    123  CG1       42.3120   -2.1670  119.4040 C.3   172  VAL172      0.0020
    124  CG2       44.7140   -1.7600  119.5240 C.3   172  VAL172      0.0020
    125  N         41.3780   -1.6010  116.1900 N.am  173  PRO173     -0.2506
    126  CA        40.1330   -1.1890  115.6220 C.3   173  PRO173      0.1487
    127  C         39.3110   -0.6110  116.7020 C.2   173  PRO173      0.2276
    128  O         39.7110   -0.7110  117.9030 O.2   173  PRO173     -0.2865
    129  CB        39.5300   -2.4610  115.0790 C.3   173  PRO173      0.0556
    130  CG        40.4960   -3.5910  115.3790 C.2   173  PRO173     -0.0078
    131  CD        41.6850   -3.0250  116.0920 C.2   173  PRO173      0.0634
    132  N         36.6610   -0.6740  119.2400 N.3   175  VAL175     -0.1245
    133  CA        36.0930   -1.8400  119.9030 C.3   175  VAL175      0.1561
    134  C         35.0390   -1.5170  120.9420 C.2   175  VAL175      0.2260
    135  O         34.7750   -2.3000  121.8520 O.2   175  VAL175     -0.2867
    136  CB        37.1670   -2.6620  120.5960 C.3   175  VAL175      0.0252
    137  CG1       38.5340   -2.5470  119.9270 C.3   175  VAL175      0.0019
    138  CG2       37.3730   -2.2740  122.0580 C.3   175  VAL175      0.0019
    139  N         31.5410    5.1070  121.1710 N.3   181  TYR181     -0.1227
    140  CA        32.0980    5.2170  122.5410 C.3   181  TYR181      0.1736
    141  C         31.3270    6.3700  123.1810 C.2   181  TYR181      0.2595
    142  O         31.2100    7.4590  122.6020 O.2   181  TYR181     -0.2718
    143  CB        33.5880    5.5940  122.4990 C.3   181  TYR181      0.0548
    144  CG        34.5510    4.4390  122.1880 C.ar  181  TYR181     -0.0200
    145  CD1       34.5130    3.2500  122.9330 C.ar  181  TYR181     -0.0009
    146  CD2       35.4880    4.5840  121.1570 C.ar  181  TYR181     -0.0009
    147  CE1       35.4180    2.2120  122.6460 C.ar  181  TYR181      0.0417
    148  CE2       36.3910    3.5520  120.8730 C.ar  181  TYR181      0.0417
    149  CZ        36.3580    2.3660  121.6170 C.ar  181  TYR181      0.1957
    150  OH        37.2400    1.3660  121.3410 O.3   181  TYR181     -0.2866
    151  N         30.7990    6.1250  124.3540 N.am  182  ASN182     -0.1960
    152  CA        30.0560    7.1520  125.1010 C.3   182  ASN182      0.1819
    153  C         31.0550    8.0470  125.8950 C.2   182  ASN182      0.2618
    154  O         31.8650    7.5320  126.6750 O.2   182  ASN182     -0.2715
    155  CB        29.1420    6.4910  126.1430 C.3   182  ASN182      0.1195
    156  CG        27.7430    6.1550  125.6250 C.2   182  ASN182      0.2630
    157  OD1       27.6030    5.3300  124.7260 O.2   182  ASN182     -0.2716
    158  ND2       26.6850    6.7450  126.1520 N.am  182  ASN182     -0.0877
    159  N         31.1440    9.6150  125.8380 N.am  183  CYS183     -0.2021
    160  CA        31.9780   10.6290  126.5970 C.3   183  CYS183      0.1398
    161  C         31.2520   10.9430  127.9290 C.3   183  CYS183      0.2045
    162  O         32.0120   11.3960  128.8540 O.3   183  CYS183     -0.2185
    163  CB        32.1420   11.9130  125.7960 C.3   183  CYS183      0.0930
    164  SG        33.4060   11.7480  124.4530 S.3   183  CYS183     -0.0802
    165  N         30.3900    6.9600  133.5770 N.3   199  ILE199     -0.1245
    166  CA        30.9320    6.2570  132.4440 C.3   199  ILE199      0.1561
    167  C         31.7890    5.0220  132.8310 C.2   199  ILE199      0.2260
    168  O         31.9120    4.0610  132.0570 O.2   199  ILE199     -0.2867
    169  CB        31.7400    7.3050  131.7030 C.3   199  ILE199      0.0252
    170  CG1       32.1650    8.4730  132.5960 C.3   199  ILE199      0.0019
    171  CG2       30.9760    7.9330  130.5350 C.3   199  ILE199      0.0019
    172  CD1       32.4860    9.7430  131.8060 C.3   199  ILE199      0.0001
    173  N         32.0200    1.9090  129.1990 N.3   203  ASN203     -0.1240
    174  CA        33.3140    1.6300  128.5930 C.3   203  ASN203      0.1653
    175  C         34.2680    1.0230  129.6110 C.2   203  ASN203      0.2266
    176  O         34.6940    1.7000  130.5640 O.2   203  ASN203     -0.2867
    177  CB        33.8770    2.9250  128.0200 C.3   203  ASN203      0.1155
    178  CG        32.8520    3.6480  127.1410 C.2   203  ASN203      0.2627
    179  OD1       32.7690    4.8730  127.1690 O.2   203  ASN203     -0.2716
    180  ND2       32.0520    2.9500  126.3530 N.am  203  ASN203     -0.0877
    181  N         37.5550   -1.4740  128.7700 N.3   205  MET205     -0.1245
    182  CA        38.3620   -1.8450  127.6060 C.3   205  MET205      0.1570
    183  C         39.4550   -2.8680  127.9910 C.2   205  MET205      0.2261
    184  O         40.0890   -3.4890  127.1280 O.2   205  MET205     -0.2867
    185  CB        38.9780   -0.6120  126.9780 C.3   205  MET205      0.0387
    186  CG        37.9430    0.3080  126.3280 C.3   205  MET205      0.0595
    187  SD        37.1980   -0.4000  124.8750 S.3   205  MET205     -0.1393
    188  CE        35.4420   -0.1100  124.8880 C.3   205  MET205      0.0692
    189  N         46.4660   -3.6890  130.3930 N.3   208  MET208     -0.1245
    190  CA        47.6850   -3.7710  129.6020 C.3   208  MET208      0.1570
    191  C         48.8000   -3.9530  130.5740 C.2   208  MET208      0.2261
    192  O         49.1880   -3.0050  131.2840 O.2   208  MET208     -0.2867
    193  CB        47.9610   -2.5340  128.7500 C.3   208  MET208      0.0387
    194  CG        49.2980   -2.5830  128.0220 C.3   208  MET208      0.0595
    195  SD        49.1000   -2.4730  126.2570 S.3   208  MET208     -0.1393
    196  CE        49.4510   -0.8230  125.7050 C.3   208  MET208      0.0692
    197  N         48.2630    8.1270  122.3560 N.3   229  HIS229     -0.1241
    198  CA        47.0800    7.6590  121.6110 C.3   229  HIS229      0.1621
    199  C         46.6950    8.6680  120.5550 C.2   229  HIS229      0.2264
    200  O         46.6200    9.8480  120.8590 O.2   229  HIS229     -0.2867
    201  CB        45.9140    7.4190  122.5330 C.3   229  HIS229      0.0745
    202  CG        44.5980    7.3570  121.8340 C.ar  229  HIS229      0.0817
    203  ND1       43.9150    8.4900  121.4330 N.ar  229  HIS229     -0.2268
    204  CD2       43.8320    6.2740  121.4850 C.ar  229  HIS229      0.1154
    205  CE1       42.7540    8.0670  120.8660 C.ar  229  HIS229      0.1986
    206  NE2       42.6900    6.7660  120.8890 N.ar  229  HIS229     -0.2212
    207  N         36.2860    9.7650  134.9080 N.3   251  GLY251     -0.1285
    208  CA        34.9400    9.1600  134.6000 C.3   251  GLY251      0.1447
    209  C         33.8820    9.8330  135.3660 C.3   251  GLY251      0.2025
    210  O         32.6280    9.4620  135.2040 O.3   251  GLY251     -0.2188
@<TRIPOS>BOND
     1   129   130    1
     2   129   126    1
     3   130   131    2
     4   126   125    1
     5   126   127    1
     6   131   125    1
     7    67    68    1
     8    67    70    1
     9    67    66    1
    10   125   120   am
    11    68    69    2
    12   108   109    1
    13   108   107    1
    14   108   111    1
    15   109   110    2
    16    70    71    1
    17   127   128    2
    18   120   121    2
    19   120   119    1
    20    80    79    2
    21   118   119    1
    22    77    78    1
    23   111   112    1
    24    79    78    1
    25   119   122    1
    26    78    81    1
    27    71    73   ar
    28    71    72   ar
    29   112   114   ar
    30   112   113   ar
    31    83    84    1
    32    86    85    2
    33    73    75   ar
    34    72    74   ar
    35   122   123    1
    36   122   124    1
    37   114   116   ar
    38    61    60    1
    39    61    62    1
    40   132   133    1
    41    81    82    1
    42   113   115   ar
    43    85    84    1
    44    60    59    1
    45    60    63    1
    46    84    87    1
    47   133   136    1
    48   133   134    1
    49   137   136    1
    50    75    76   ar
    51    65    63    1
    52    74    76   ar
    53   116   117   ar
    54   199   200    2
    55   199   198    1
    56   136   138    1
    57    63    64    1
    58   115   117   ar
    59   205   206   ar
    60   205   203   ar
    61   148   146   ar
    62   148   149   ar
    63    87    88    1
    64   206   204   ar
    65   134   135    2
    66    89    88   ar
    67    89    91   ar
    68   146   144   ar
    69   139   140    1
    70   150   149    1
    71   203   202   ar
    72   204   202   ar
    73   198   197    1
    74   198   201    1
    75   149   147   ar
    76    88    90   ar
    77   202   201    1
    78    91    93   ar
    79   144   143    1
    80   144   145   ar
    81    49    47    1
    82   143   140    1
    83   140   141    1
    84   142   141    2
    85   147   145   ar
    86    90    92   ar
    87   141   151   am
    88    93    92   ar
    89    93    94    1
    90    47    46    1
    91    47    48    1
    92   102   104   ar
    93   102   100   ar
    94    43    42    1
    95    43    46    1
    96    43    44    1
    97    45    44    2
    98   104   105   ar
    99    23    22    1
   100    44    50   am
   101    99   100    1
   102    99    96    1
   103   151   152    1
   104   100   101   ar
   105   164   163    1
   106   157   156    2
   107   105   106    1
   108   105   103   ar
   109   187   188    1
   110   187   186    1
   111   152   153    1
   112   152   155    1
   113    50    51    1
   114    22    24    1
   115    22    21    1
   116    52    51    1
   117    52    53    2
   118   101   103   ar
   119    95    96    1
   120    96    97    1
   121   156   155    1
   122   156   158   am
   123    98    97    2
   124   196   195    1
   125   163   160    1
   126   159   153   am
   127   159   160    1
   128   153   154    2
   129    51    54    1
   130   195   194    1
   131   186   185    1
   132   180   178   am
   133    21    18    1
   134   160   161    1
   135   185   182    1
   136     8     6    1
   137   184   183    2
   138   178   179    2
   139   178   177    1
   140    34    33    2
   141    31    32    1
   142     7     5    1
   143    54    55    1
   144    33    32    1
   145   182   183    1
   146   182   181    1
   147    32    35    1
   148   161   162    1
   149    18    17    1
   150    18    19    1
   151   177   174    1
   152   194   193    1
   153    55    56    1
   154     6     5    1
   155    20    19    2
   156   174   173    1
   157   174   175    1
   158    17    11   am
   159    12    11    2
   160     5     2    1
   161   193   190    1
   162    19    25   am
   163    11    10    1
   164    35    36    1
   165   190   189    1
   166   190   191    1
   167   175   176    2
   168    56    57   ar
   169    56    58   ar
   170     9    10    1
   171     9     3   am
   172    10    13    1
   173    25    26    1
   174     2     3    1
   175     2     1    1
   176    36    37    1
   177     3     4    2
   178   171   169    1
   179   191   192    2
   180    26    29    1
   181    26    27    1
   182    13    14    1
   183    29    30    1
   184    37    38    1
   185    15    14    2
   186   169   166    1
   187   169   170    1
   188    14    16   am
   189   172   170    1
   190    27    28    2
   191    38    39    2
   192   168   167    2
   193   166   167    1
   194   166   165    1
   195    39    41    1
   196    39    40    1
   197   208   207    1
   198   208   209    1
   199   210   209    1
