@<TRIPOS>MOLECULE
tmp/1vrlC00.pdb
 130 121 0 0 0
SMALL
GASTEIGER

@<TRIPOS>ATOM
      1  N         -0.0240   -0.2830    3.0650 N.3    18  ARG18      -0.1245
      2  CA        -0.6460    0.2320    4.2740 C.3    18  ARG18       0.1563
      3  C         -0.7990    1.7510    4.1830 C.2    18  ARG18       0.2260
      4  O         -0.0350    2.4330    3.5030 O.2    18  ARG18      -0.2867
      5  CB         0.2000   -0.1170    5.4880 C.3    18  ARG18       0.0307
      6  CG         0.2070   -1.5830    5.8240 C.3    18  ARG18       0.0489
      7  CD         1.3690   -1.9180    6.7430 C.3    18  ARG18       0.2205
      8  NE         2.6610   -1.6850    6.1030 N.pl3  18  ARG18      -0.0865
      9  CZ         3.8230   -1.8580    6.7200 C.cat  18  ARG18       0.5346
     10  NH1        3.8470   -2.2650    7.9780 N.pl3  18  ARG18       0.1354
     11  NH2        4.9580   -1.6150    6.0950 N.pl3  18  ARG18       0.1354
     12  N          0.0020    4.3700    5.9630 N.3    20  LEU20      -0.1245
     13  CA         0.8580    4.9050    7.0140 C.3    20  LEU20       0.1561
     14  C          0.9380    6.4240    6.9990 C.2    20  LEU20       0.2260
     15  O          0.8950    7.0560    5.9430 O.2    20  LEU20      -0.2867
     16  CB         2.2620    4.3150    6.8770 C.3    20  LEU20       0.0270
     17  CG         2.2810    2.8000    7.0610 C.3    20  LEU20       0.0019
     18  CD1        3.6570    2.2590    6.7920 C.3    20  LEU20       0.0001
     19  CD2        1.8310    2.4690    8.4650 C.3    20  LEU20       0.0001
     20  N          3.3310    8.7610    7.2230 N.3    22  TRP22      -0.1227
     21  CA         4.2520    9.3900    6.2770 C.3    22  TRP22       0.1737
     22  C          3.9010    9.1560    4.8130 C.2    22  TRP22       0.2595
     23  O          4.6210    9.6060    3.9230 O.2    22  TRP22      -0.2718
     24  CB         5.6840    8.9220    6.5420 C.3    22  TRP22       0.0564
     25  CG         5.8140    7.4400    6.6840 C.ar   22  TRP22       0.0003
     26  CD1        6.0720    6.5410    5.6930 C.ar   22  TRP22       0.0946
     27  CD2        5.7040    6.6810    7.9010 C.ar   22  TRP22       0.0152
     28  NE1        6.1410    5.2680    6.2180 N.ar   22  TRP22      -0.2442
     29  CE2        5.9120    5.3240    7.5680 C.ar   22  TRP22       0.0810
     30  CE3        5.4530    7.0170    9.2360 C.ar   22  TRP22       0.0012
     31  CZ2        5.8760    4.3000    8.5220 C.ar   22  TRP22       0.0191
     32  CZ3        5.4220    6.0020   10.1850 C.ar   22  TRP22       0.0001
     33  CH2        5.6320    4.6570    9.8210 C.ar   22  TRP22       0.0015
     34  N          2.7960    8.4630    4.5570 N.am   23  ARG23      -0.1980
     35  CA         2.3920    8.1980    3.1790 C.3    23  ARG23       0.1597
     36  C          1.2620    9.1200    2.7300 C.2    23  ARG23       0.2287
     37  O          0.7410    8.9720    1.6220 O.2    23  ARG23      -0.2864
     38  CB         1.9870    6.7210    3.0100 C.3    23  ARG23       0.0334
     39  CG         3.1740    5.7880    2.7730 C.3    23  ARG23       0.0492
     40  CD         2.8010    4.3040    2.8500 C.3    23  ARG23       0.2205
     41  NE         3.9920    3.4500    2.8240 N.pl3  23  ARG23      -0.0865
     42  CZ         3.9790    2.1190    2.8890 C.cat  23  ARG23       0.5346
     43  NH1        2.8330    1.4660    2.9930 N.pl3  23  ARG23       0.1354
     44  NH2        5.1190    1.4330    2.8170 N.pl3  23  ARG23       0.1354
     45  N         11.9060    8.0150    7.3980 N.3    35  GLU35      -0.1245
     46  CA        12.9500    7.0870    7.0080 C.3    35  GLU35       0.1567
     47  C         14.0120    6.9980    8.0920 C.2    35  GLU35       0.2260
     48  O         14.5670    5.9310    8.3200 O.2    35  GLU35      -0.2867
     49  CB        13.5720    7.4910    5.6730 C.3    35  GLU35       0.0388
     50  CG        12.6390    7.2530    4.5050 C.3    35  GLU35       0.1160
     51  CD        12.2430    5.7920    4.3730 C.2    35  GLU35       0.3649
     52  OE1       11.1840    5.5050    3.7640 O.co2  35  GLU35      -0.2457
     53  OE2       13.0000    4.9300    4.8780 O.co2  35  GLU35      -0.2457
     54  N         12.5460    5.0450   11.1430 N.3    38  LEU38      -0.1245
     55  CA        12.3620    3.6420   10.8540 C.3    38  LEU38       0.1561
     56  C         13.6230    2.7770   10.8760 C.2    38  LEU38       0.2260
     57  O         13.5290    1.5500   10.7970 O.2    38  LEU38      -0.2867
     58  CB        11.6270    3.4920    9.5260 C.3    38  LEU38       0.0270
     59  CG        10.1570    3.9600    9.5050 C.3    38  LEU38       0.0019
     60  CD1        9.6940    4.0990    8.0530 C.3    38  LEU38       0.0001
     61  CD2        9.2500    2.9790   10.2570 C.3    38  LEU38       0.0001
     62  N          7.6720   -0.2190   12.5670 N.3    43  VAL43      -0.1245
     63  CA         6.6430    0.7300   12.1560 C.3    43  VAL43       0.1561
     64  C          5.6250    1.0320   13.2430 C.2    43  VAL43       0.2260
     65  O          5.3070    2.1930   13.4660 O.2    43  VAL43      -0.2867
     66  CB         5.8850    0.2380   10.9020 C.3    43  VAL43       0.0252
     67  CG1        4.6160    1.0250   10.7320 C.3    43  VAL43       0.0019
     68  CG2        6.7520    0.4130    9.6540 C.3    43  VAL43       0.0019
     69  N         21.3620    4.1380    1.9220 N.3   118  TYR118     -0.1241
     70  CA        19.9490    3.8130    1.9690 C.3   118  TYR118      0.1605
     71  C         19.0580    5.0570    2.0390 C.2   118  TYR118      0.2264
     72  O         18.0890    5.1730    1.2860 O.2   118  TYR118     -0.2867
     73  CB        19.6150    2.9120    3.1600 C.3   118  TYR118      0.0534
     74  CG        18.1280    2.7890    3.3120 C.ar  118  TYR118     -0.0201
     75  CD1       17.3780    1.9980    2.4440 C.ar  118  TYR118     -0.0009
     76  CD2       17.4430    3.5910    4.2130 C.ar  118  TYR118     -0.0009
     77  CE1       15.9910    2.0270    2.4680 C.ar  118  TYR118      0.0417
     78  CE2       16.0560    3.6210    4.2360 C.ar  118  TYR118      0.0417
     79  CZ        15.3440    2.8470    3.3690 C.ar  118  TYR118      0.1957
     80  OH        13.9760    2.9040    3.4220 O.3   118  TYR118     -0.2866
     81  N         11.4660    8.2690   -3.2510 N.3   126  LEU126     -0.1245
     82  CA        10.0450    8.3920   -2.9180 C.3   126  LEU126      0.1561
     83  C          9.5120    9.8220   -2.9700 C.2   126  LEU126      0.2260
     84  O          8.3470   10.0430   -3.2920 O.2   126  LEU126     -0.2867
     85  CB         9.7310    7.8400   -1.5160 C.3   126  LEU126      0.0270
     86  CG        10.4560    6.7010   -0.7880 C.3   126  LEU126      0.0019
     87  CD1        9.6210    6.3850    0.4370 C.3   126  LEU126      0.0001
     88  CD2       10.6290    5.4520   -1.6320 C.3   126  LEU126      0.0001
     89  N         17.7140   -1.6900    1.9580 N.3   136  ASN136     -0.1240
     90  CA        17.8300   -1.8690    3.3930 C.3   136  ASN136      0.1653
     91  C         17.6990   -3.3560    3.7050 C.2   136  ASN136      0.2266
     92  O         17.8520   -4.1910    2.8220 O.2   136  ASN136     -0.2867
     93  CB        16.7430   -1.0730    4.1200 C.3   136  ASN136      0.1155
     94  CG        15.3330   -1.4980    3.7260 C.2   136  ASN136      0.2627
     95  OD1       15.1340   -2.5080    3.0490 O.2   136  ASN136     -0.2716
     96  ND2       14.3430   -0.7280    4.1630 N.am  136  ASN136     -0.0877
     97  N         14.9770   -5.2610    4.5680 N.3   138  ASN138     -0.1240
     98  CA        13.8600   -5.8830    3.8710 C.3   138  ASN138      0.1653
     99  C         14.2110   -6.1350    2.4210 C.2   138  ASN138      0.2266
    100  O         14.0980   -7.2580    1.9310 O.2   138  ASN138     -0.2867
    101  CB        12.6200   -4.9930    3.8850 C.3   138  ASN138      0.1155
    102  CG        11.9420   -4.9390    5.2270 C.2   138  ASN138      0.2627
    103  OD1       10.9290   -4.2470    5.3880 O.2   138  ASN138     -0.2716
    104  ND2       12.4830   -5.6580    6.2030 N.am  138  ASN138     -0.0877
    105  N          9.3950    1.6350   -2.6310 N.3   180  GLU180     -0.1245
    106  CA         8.5460    1.3820   -1.4720 C.3   180  GLU180      0.1567
    107  C          7.8390    0.0410   -1.6230 C.2   180  GLU180      0.2260
    108  O          7.6280   -0.6680   -0.6380 O.2   180  GLU180     -0.2867
    109  CB         7.4940    2.4780   -1.2870 C.3   180  GLU180      0.0388
    110  CG         7.8350    3.4620   -0.1990 C.3   180  GLU180      0.1160
    111  CD         6.6080    4.1520    0.3860 C.2   180  GLU180      0.3649
    112  OE1        5.7950    4.6900   -0.4080 O.co2 180  GLU180     -0.2457
    113  OE2        6.4670    4.1570    1.6400 O.co2 180  GLU180     -0.2457
    114  N          9.9050   -2.5920   -0.4460 N.3   183  ILE183     -0.1231
    115  CA         9.9720   -2.5460    1.0110 C.3   183  ILE183      0.1692
    116  C          8.6950   -3.0700    1.6900 C.2   183  ILE183      0.2591
    117  O          8.7860   -3.7620    2.7110 O.2   183  ILE183     -0.2718
    118  CB        10.2880   -1.1210    1.4900 C.3   183  ILE183      0.0266
    119  CG1       11.7020   -0.7440    1.0560 C.3   183  ILE183      0.0019
    120  CG2       10.2070   -1.0350    3.0060 C.3   183  ILE183      0.0020
    121  CD1       11.9780    0.7230    1.1300 C.3   183  ILE183      0.0001
    122  N          7.5180   -2.7510    1.1400 N.am  184  GLU184     -0.1979
    123  CA         6.2710   -3.2500    1.7180 C.3   184  GLU184      0.1602
    124  C          6.2900   -4.7690    1.6080 C.2   184  GLU184      0.2287
    125  O          5.9950   -5.4710    2.5760 O.2   184  GLU184     -0.2864
    126  CB         5.0270   -2.7600    0.9620 C.3   184  GLU184      0.0415
    127  CG         4.3870   -1.4620    1.4140 C.3   184  GLU184      0.1163
    128  CD         4.0730   -1.4060    2.8920 C.2   184  GLU184      0.3649
    129  OE1        5.0190   -1.1850    3.6710 O.co2 184  GLU184     -0.2457
    130  OE2        2.8950   -1.5730    3.2800 O.co2 184  GLU184     -0.2457
@<TRIPOS>BOND
     1    84    83    2
     2    81    82    1
     3    83    82    1
     4    82    85    1
     5   105   106    1
     6    88    86    1
     7   107   106    1
     8   107   108    2
     9    85    86    1
    10   106   109    1
    11   109   110    1
    12    86    87    1
    13   114   115    1
    14   112   111   ar
    15   110   111    1
    16   111   113   ar
    17   126   127    1
    18   126   123    1
    19   115   118    1
    20   115   116    1
    21   119   121    1
    22   119   118    1
    23   122   116   am
    24   122   123    1
    25    72    71    2
    26   127   128    1
    27   118   120    1
    28   124   123    1
    29   124   125    2
    30    37    36    2
    31   116   117    2
    32    69    70    1
    33   100    99    2
    34    89    90    1
    35    70    71    1
    36    70    73    1
    37    99    98    1
    38    75    77   ar
    39    75    74   ar
    40    77    79   ar
    41    36    35    1
    42    39    40    1
    43    39    38    1
    44    44    42    1
    45    92    91    2
    46    41    40    1
    47    41    42    2
    48    42    43    1
    49   128   130   ar
    50   128   129   ar
    51    38    35    1
    52    95    94    2
    53     1     2    1
    54    73    74    1
    55    35    34    1
    56    74    76   ar
    57    79    80    1
    58    79    78   ar
    59    90    91    1
    60    90    93    1
    61     4     3    2
    62    94    93    1
    63    94    96   am
    64    52    51   ar
    65    98   101    1
    66    98    97    1
    67   101   102    1
    68    23    22    2
    69     3     2    1
    70    76    78   ar
    71     2     5    1
    72    51    50    1
    73    51    53   ar
    74    50    49    1
    75    34    22   am
    76    22    21    1
    77   102   103    2
    78   102   104   am
    79     5     6    1
    80    49    46    1
    81    26    28   ar
    82    26    25   ar
    83     6     7    1
    84    15    14    2
    85    12    13    1
    86    11     9    1
    87     8     9    2
    88     8     7    1
    89    28    29   ar
    90    21    24    1
    91    21    20    1
    92    24    25    1
    93    25    27   ar
    94     9    10    1
    95    18    17    1
    96    16    13    1
    97    16    17    1
    98    14    13    1
    99    46    45    1
   100    46    47    1
   101    17    19    1
   102    29    27   ar
   103    29    31   ar
   104    27    30   ar
   105    60    59    1
   106    47    48    2
   107    31    33   ar
   108    30    32   ar
   109    59    58    1
   110    59    61    1
   111    58    55    1
   112    68    66    1
   113    33    32   ar
   114    67    66    1
   115    57    56    2
   116    55    56    1
   117    55    54    1
   118    66    63    1
   119    63    62    1
   120    63    64    1
   121    64    65    2
