@<TRIPOS>MOLECULE
tmp/1vrnB01.pdb
 100 101 0 0 0
SMALL
GASTEIGER

@<TRIPOS>ATOM
      1  N         27.8480  -21.9000  -19.7730 N.3    33  ARG33      -0.1245
      2  CA        26.8990  -23.0030  -19.6750 C.3    33  ARG33       0.1563
      3  C         26.8330  -23.4950  -18.2320 C.2    33  ARG33       0.2260
      4  O         25.7900  -23.9610  -17.7700 O.2    33  ARG33      -0.2867
      5  CB        27.2940  -24.1410  -20.6140 C.3    33  ARG33       0.0307
      6  CG        26.8360  -23.9050  -22.0390 C.3    33  ARG33       0.0489
      7  CD        27.2900  -25.0210  -22.9310 C.3    33  ARG33       0.2205
      8  NE        26.6260  -24.9910  -24.2260 N.pl3  33  ARG33      -0.0865
      9  CZ        27.1780  -25.4410  -25.3450 C.cat  33  ARG33       0.5346
     10  NH1       28.4060  -25.9430  -25.3160 N.pl3  33  ARG33       0.1354
     11  NH2       26.4990  -25.4040  -26.4840 N.pl3  33  ARG33       0.1354
     12  N         15.2220  -24.3780  -17.6020 N.3    41  PRO41      -0.2116
     13  CA        14.9780  -23.3650  -18.6340 C.3    41  PRO41       0.1372
     14  C         14.1470  -22.1980  -18.1090 C.2    41  PRO41       0.2244
     15  O         13.4430  -22.3250  -17.1090 O.2    41  PRO41      -0.2868
     16  CB        14.2480  -24.1530  -19.7170 C.3    41  PRO41       0.0268
     17  CG        13.4390  -25.1210  -18.9140 C.3    41  PRO41       0.0207
     18  CD        14.4380  -25.5980  -17.8720 C.3    41  PRO41       0.0892
     19  N         18.0700  -25.9100  -25.4140 N.3    58  VAL58      -0.1231
     20  CA        18.8890  -27.1060  -25.2720 C.3    58  VAL58       0.1692
     21  C         20.3720  -26.7570  -25.4450 C.2    58  VAL58       0.2592
     22  O         21.2140  -27.2300  -24.6860 O.2    58  VAL58      -0.2718
     23  CB        18.5060  -28.1780  -26.3270 C.3    58  VAL58       0.0266
     24  CG1       19.4500  -29.3700  -26.2250 C.3    58  VAL58       0.0020
     25  CG2       17.0560  -28.6290  -26.1190 C.3    58  VAL58       0.0020
     26  N         20.6780  -25.9160  -26.4340 N.am   59  TYR59      -0.1976
     27  CA        22.0610  -25.5230  -26.7260 C.3    59  TYR59       0.1639
     28  C         22.8040  -24.7870  -25.6140 C.2    59  TYR59       0.2290
     29  O         24.0120  -24.9540  -25.4670 O.2    59  TYR59      -0.2864
     30  CB        22.1270  -24.6390  -27.9780 C.3    59  TYR59       0.0560
     31  CG        21.6010  -25.2690  -29.2500 C.ar   59  TYR59      -0.0198
     32  CD1       21.7370  -26.6370  -29.4880 C.ar   59  TYR59      -0.0009
     33  CD2       20.9890  -24.4860  -30.2300 C.ar   59  TYR59      -0.0009
     34  CE1       21.2720  -27.2120  -30.6740 C.ar   59  TYR59       0.0417
     35  CE2       20.5220  -25.0480  -31.4170 C.ar   59  TYR59       0.0417
     36  CZ        20.6650  -26.4120  -31.6310 C.ar   59  TYR59       0.1957
     37  OH        20.1890  -26.9750  -32.7940 O.3    59  TYR59      -0.2866
     38  N         22.3930  -25.1360  -22.3970 N.3    61  LEU61      -0.1231
     39  CA        22.5760  -25.9210  -21.1920 C.3    61  LEU61       0.1678
     40  C         23.7240  -26.9040  -21.2830 C.2    61  LEU61       0.2434
     41  O         24.0730  -27.3820  -22.3650 O.2    61  LEU61      -0.2733
     42  CB        21.3000  -26.6980  -20.8530 C.3    61  LEU61       0.0284
     43  CG        20.0260  -25.9150  -20.5130 C.3    61  LEU61       0.0019
     44  CD1       18.8850  -26.9070  -20.2790 C.3    61  LEU61       0.0001
     45  CD2       20.2490  -25.0470  -19.2750 C.3    61  LEU61       0.0001
     46  N         24.3530  -27.1980  -20.1380 N.am   62  PRO62      -0.2718
     47  CA        25.4630  -28.1480  -20.1010 C.3    62  PRO62       0.1535
     48  C         24.8200  -29.5010  -19.7890 C.2    62  PRO62       0.2598
     49  O         23.6510  -29.5550  -19.4020 O.2    62  PRO62      -0.2715
     50  CB        26.2890  -27.6450  -18.9340 C.3    62  PRO62       0.0310
     51  CG        25.2040  -27.2500  -17.9510 C.3    62  PRO62       0.0237
     52  CD        24.2150  -26.5000  -18.8440 C.3    62  PRO62       0.0939
     53  N         25.5600  -30.5880  -19.9610 N.am   63  TYR63      -0.1961
     54  CA        25.0090  -31.8910  -19.6310 C.3    63  TYR63       0.1756
     55  C         24.8440  -31.9010  -18.1150 C.2    63  TYR63       0.2461
     56  O         25.6520  -31.3210  -17.3950 O.2    63  TYR63      -0.2730
     57  CB        25.9570  -33.0060  -20.0820 C.3    63  TYR63       0.0574
     58  CG        25.8340  -33.3170  -21.5590 C.ar   63  TYR63      -0.0198
     59  CD1       24.6770  -33.9090  -22.0690 C.ar   63  TYR63      -0.0009
     60  CD2       26.8490  -32.9780  -22.4520 C.ar   63  TYR63      -0.0009
     61  CE1       24.5320  -34.1540  -23.4360 C.ar   63  TYR63       0.0417
     62  CE2       26.7160  -33.2170  -23.8220 C.ar   63  TYR63       0.0417
     63  CZ        25.5540  -33.8050  -24.3050 C.ar   63  TYR63       0.1957
     64  OH        25.4120  -34.0430  -25.6540 O.3    63  TYR63      -0.2866
     65  N         23.7740  -32.5300  -17.6120 N.am   64  PRO64      -0.2727
     66  CA        23.5730  -32.5660  -16.1630 C.3    64  PRO64       0.1402
     67  C         24.7470  -33.1810  -15.4180 C.2    64  PRO64       0.2269
     68  O         25.4340  -34.0610  -15.9330 O.2    64  PRO64      -0.2865
     69  CB        22.3020  -33.3960  -16.0150 C.3    64  PRO64       0.0296
     70  CG        21.5210  -33.0020  -17.2430 C.3    64  PRO64       0.0237
     71  CD        22.5910  -33.0510  -18.3220 C.3    64  PRO64       0.0939
     72  N         21.6620  -29.1600  -14.2820 N.3    78  PRO78      -0.2102
     73  CA        20.3390  -28.5710  -14.0670 C.3    78  PRO78       0.1504
     74  C         19.2490  -29.6390  -14.1040 C.2    78  PRO78       0.2576
     75  O         19.4590  -30.7340  -14.6300 O.2    78  PRO78      -0.2718
     76  CB        20.2070  -27.6100  -15.2380 C.3    78  PRO78       0.0282
     77  CG        20.8700  -28.3940  -16.3430 C.3    78  PRO78       0.0208
     78  CD        22.1240  -28.9150  -15.6620 C.3    78  PRO78       0.0893
     79  N         18.0960  -29.3120  -13.5310 N.am   79  ARG79      -0.1966
     80  CA        16.9400  -30.2000  -13.5310 C.3    79  ARG79       0.1729
     81  C         15.7240  -29.2900  -13.4310 C.2    79  ARG79       0.2616
     82  O         15.8330  -28.1580  -12.9550 O.2    79  ARG79      -0.2715
     83  CB        16.9800  -31.1910  -12.3540 C.3    79  ARG79       0.0348
     84  CG        16.7320  -30.5910  -10.9730 C.3    79  ARG79       0.0492
     85  CD        16.6580  -31.6890   -9.9050 C.3    79  ARG79       0.2205
     86  NE        16.3730  -31.1490   -8.5730 N.pl3  79  ARG79      -0.0865
     87  CZ        17.2550  -30.4920   -7.8250 C.cat  79  ARG79       0.5346
     88  NH1       18.4890  -30.2950   -8.2700 N.pl3  79  ARG79       0.1354
     89  NH2       16.9000  -30.0210   -6.6360 N.pl3  79  ARG79       0.1354
     90  N         14.5750  -29.7710  -13.8890 N.am   80  ARG80      -0.1977
     91  CA        13.3550  -28.9720  -13.8560 C.3    80  ARG80       0.1597
     92  C         12.8930  -28.7250  -12.4270 C.2    80  ARG80       0.2287
     93  O         12.7470  -29.6610  -11.6410 O.2    80  ARG80      -0.2864
     94  CB        12.2420  -29.6690  -14.6450 C.3    80  ARG80       0.0334
     95  CG        11.9190  -31.0730  -14.1600 C.3    80  ARG80       0.0492
     96  CD        10.8360  -31.7150  -15.0120 C.3    80  ARG80       0.2205
     97  NE         9.5920  -30.9510  -14.9900 N.pl3  80  ARG80      -0.0865
     98  CZ         8.8620  -30.7370  -13.9000 C.cat  80  ARG80       0.5346
     99  NH1        9.2480  -31.2310  -12.7300 N.pl3  80  ARG80       0.1354
    100  NH2        7.7430  -30.0300  -13.9780 N.pl3  80  ARG80       0.1354
@<TRIPOS>BOND
     1    37    36    1
     2    36    35   ar
     3    36    34   ar
     4    35    33   ar
     5    34    32   ar
     6    33    31   ar
     7    32    31   ar
     8    31    30    1
     9    30    27    1
    10    27    26    1
    11    27    28    1
    12    11     9    1
    13    26    21   am
    14    23    24    1
    15    23    25    1
    16    23    20    1
    17    64    63    1
    18    28    29    2
    19    21    20    1
    20    21    22    2
    21    19    20    1
    22     9    10    1
    23     9     8    2
    24    63    62   ar
    25    63    61   ar
    26     8     7    1
    27    62    60   ar
    28    61    59   ar
    29     7     6    1
    30    60    58   ar
    31    38    39    1
    32    41    40    2
    33    59    58   ar
    34     6     5    1
    35    58    57    1
    36    40    39    1
    37    40    46   am
    38    39    42    1
    39    42    43    1
    40     5     2    1
    41    43    44    1
    42    43    45    1
    43    46    47    1
    44    46    52    1
    45    47    48    1
    46    47    50    1
    47    57    54    1
    48    53    48   am
    49    53    54    1
    50    48    49    2
    51     1     2    1
    52    16    17    1
    53    16    13    1
    54     2     3    1
    55    54    55    1
    56    50    51    1
    57    17    18    1
    58    52    51    1
    59    13    14    1
    60    13    12    1
    61    71    65    1
    62    71    70    1
    63     3     4    2
    64    55    65   am
    65    55    56    2
    66    14    15    2
    67    18    12    1
    68    65    66    1
    69    70    69    1
    70    77    78    1
    71    77    76    1
    72    66    69    1
    73    66    67    1
    74    68    67    2
    75    78    72    1
    76    76    73    1
    77    96    97    1
    78    96    95    1
    79    97    98    2
    80    94    95    1
    81    94    91    1
    82    75    74    2
    83    72    73    1
    84    74    73    1
    85    74    79   am
    86   100    98    1
    87    98    99    1
    88    90    91    1
    89    90    81   am
    90    91    92    1
    91    79    80    1
    92    80    81    1
    93    80    83    1
    94    81    82    2
    95    92    93    2
    96    83    84    1
    97    84    85    1
    98    85    86    1
    99    86    87    2
   100    88    87    1
   101    87    89    1
