@<TRIPOS>MOLECULE
tmp/1vrnC07.pdb
 211 202 0 0 0
SMALL
GASTEIGER

@<TRIPOS>ATOM
      1  N         56.7300    3.7540   -3.6700 N.3   171  PRO171     -0.2102
      2  CA        56.1620    2.9970   -2.5450 C.3   171  PRO171      0.1504
      3  C         54.6660    2.7160   -2.6620 C.2   171  PRO171      0.2576
      4  O         54.2030    1.6330   -2.2970 O.2   171  PRO171     -0.2718
      5  CB        56.5090    3.8670   -1.3290 C.3   171  PRO171      0.0282
      6  CG        56.5450    5.2570   -1.9070 C.3   171  PRO171      0.0208
      7  CD        57.2960    5.0340   -3.2050 C.3   171  PRO171      0.0893
      8  N         53.9100    3.6930   -3.1530 N.am  172  GLY172     -0.1957
      9  CA        52.4800    3.4930   -3.3170 C.3   172  GLY172      0.1869
     10  C         52.2250    2.4500   -4.3950 C.2   172  GLY172      0.2309
     11  O         51.2500    1.6940   -4.3360 O.2   172  GLY172     -0.2863
     12  N         52.9220   -1.1430   -3.0390 N.3   175  SER175     -0.1217
     13  CA        51.7860   -1.6270   -2.2670 C.3   175  SER175      0.1889
     14  C         50.6740   -2.0780   -3.2230 C.2   175  SER175      0.2288
     15  O         50.1260   -3.1730   -3.0880 O.2   175  SER175     -0.2866
     16  CB        51.2640   -0.5170   -1.3510 C.3   175  SER175      0.2089
     17  OG        50.0080   -0.8720   -0.8080 O.3   175  SER175     -0.2183
     18  N         51.5630   -5.3570   -4.9480 N.3   178  SER178     -0.1202
     19  CA        51.4980   -6.4810   -4.0130 C.3   178  SER178      0.2020
     20  C         50.0560   -6.9120   -3.8020 C.2   178  SER178      0.2618
     21  O         49.7620   -8.1030   -3.7320 O.2   178  SER178     -0.2717
     22  CB        52.1330   -6.0990   -2.6710 C.3   178  SER178      0.2103
     23  OG        53.4910   -5.7390   -2.8580 O.3   178  SER178     -0.2182
     24  N         49.1520   -5.9420   -3.7000 N.am  179  PHE179     -0.1975
     25  CA        47.7450   -6.2610   -3.5240 C.3   179  PHE179      0.1639
     26  C         47.1770   -6.9160   -4.7840 C.2   179  PHE179      0.2290
     27  O         46.3500   -7.8270   -4.6910 O.2   179  PHE179     -0.2864
     28  CB        46.9530   -4.9990   -3.1560 C.3   179  PHE179      0.0560
     29  CG        46.9680   -4.6910   -1.6830 C.ar  179  PHE179     -0.0200
     30  CD1       46.3300   -5.5420   -0.7780 C.ar  179  PHE179     -0.0042
     31  CD2       47.6610   -3.5840   -1.1900 C.ar  179  PHE179     -0.0042
     32  CE1       46.3840   -5.2990    0.5980 C.ar  179  PHE179     -0.0003
     33  CE2       47.7240   -3.3300    0.1840 C.ar  179  PHE179     -0.0003
     34  CZ        47.0840   -4.1900    1.0810 C.ar  179  PHE179     -0.0000
     35  N         48.6170  -10.6570   -4.7360 N.3   182  VAL182     -0.1245
     36  CA        48.0320  -11.4950   -3.6990 C.3   182  VAL182      0.1561
     37  C         46.5430  -11.7130   -3.9400 C.2   182  VAL182      0.2260
     38  O         46.0060  -12.7790   -3.6280 O.2   182  VAL182     -0.2867
     39  CB        48.2630  -10.9050   -2.2700 C.3   182  VAL182      0.0252
     40  CG1       47.4560   -9.6250   -2.0760 C.3   182  VAL182      0.0019
     41  CG2       47.8840  -11.9490   -1.2150 C.3   182  VAL182      0.0019
     42  N         46.1660  -14.2660   -6.6890 N.3   185  MET185     -0.1230
     43  CA        46.5570  -15.5470   -6.1140 C.3   185  MET185      0.1702
     44  C         45.4380  -16.0810   -5.2230 C.2   185  MET185      0.2592
     45  O         45.0160  -17.2310   -5.3600 O.2   185  MET185     -0.2718
     46  CB        47.8530  -15.3740   -5.3100 C.3   185  MET185      0.0401
     47  CG        48.3250  -16.6130   -4.5660 C.3   185  MET185      0.0596
     48  SD        47.8630  -16.5820   -2.8350 S.3   185  MET185     -0.1393
     49  CE        49.2720  -17.4520   -2.0960 C.3   185  MET185      0.0692
     50  N         44.9440  -15.2270   -4.3310 N.am  186  ALA186     -0.1980
     51  CA        43.8780  -15.5970   -3.4100 C.3   186  ALA186      0.1597
     52  C         42.5970  -16.0140   -4.1260 C.2   186  ALA186      0.2287
     53  O         41.9070  -16.9310   -3.6770 O.2   186  ALA186     -0.2864
     54  CB        43.5860  -14.4360   -2.4500 C.3   186  ALA186      0.0319
     55  N         43.0560  -19.4250   -5.1960 N.3   189  LEU189     -0.1231
     56  CA        42.9880  -20.3120   -4.0380 C.3   189  LEU189      0.1693
     57  C         41.5440  -20.5330   -3.6000 C.2   189  LEU189      0.2592
     58  O         41.1360  -21.6680   -3.3630 O.2   189  LEU189     -0.2718
     59  CB        43.7740  -19.7300   -2.8590 C.3   189  LEU189      0.0284
     60  CG        45.3020  -19.6880   -2.9330 C.3   189  LEU189      0.0019
     61  CD1       45.8430  -19.0240   -1.6670 C.3   189  LEU189      0.0001
     62  CD2       45.8570  -21.0970   -3.0770 C.3   189  LEU189      0.0001
     63  N         40.7750  -19.4490   -3.4860 N.am  190  HIS190     -0.1976
     64  CA        39.3810  -19.5500   -3.0640 C.3   190  HIS190      0.1656
     65  C         38.5450  -20.3330   -4.0720 C.2   190  HIS190      0.2291
     66  O         37.8510  -21.2790   -3.7070 O.2   190  HIS190     -0.2864
     67  CB        38.7630  -18.1580   -2.8560 C.3   190  HIS190      0.0771
     68  CG        37.3110  -18.1960   -2.4790 C.ar  190  HIS190      0.0820
     69  ND1       36.8200  -18.8470   -1.3700 N.ar  190  HIS190     -0.2267
     70  CD2       36.2240  -17.6860   -3.1150 C.ar  190  HIS190      0.1154
     71  CE1       35.4820  -18.7230   -1.3660 C.ar  190  HIS190      0.1986
     72  NE2       35.0620  -18.0250   -2.4050 N.ar  190  HIS190     -0.2212
     73  N         39.5650  -23.9690   -3.9780 N.3   193  LEU193     -0.1231
     74  CA        39.1490  -24.6790   -2.7760 C.3   193  LEU193      0.1693
     75  C         37.6820  -25.0850   -2.8380 C.2   193  LEU193      0.2591
     76  O         37.3430  -26.2440   -2.5860 O.2   193  LEU193     -0.2718
     77  CB        39.3850  -23.8230   -1.5280 C.3   193  LEU193      0.0284
     78  CG        38.9810  -24.5050   -0.2140 C.3   193  LEU193      0.0019
     79  CD1       39.7930  -25.7900   -0.0280 C.3   193  LEU193      0.0001
     80  CD2       39.2130  -23.5640    0.9530 C.3   193  LEU193      0.0001
     81  N         36.8150  -24.1280   -3.1710 N.am  194  ILE194     -0.1980
     82  CA        35.3800  -24.3880   -3.2670 C.3   194  ILE194      0.1595
     83  C         35.0930  -25.4730   -4.2990 C.2   194  ILE194      0.2287
     84  O         34.2790  -26.3680   -4.0650 O.2   194  ILE194     -0.2864
     85  CB        34.5980  -23.1050   -3.6680 C.3   194  ILE194      0.0276
     86  CG1       34.7120  -22.0520   -2.5570 C.3   194  ILE194      0.0022
     87  CG2       33.1340  -23.4420   -3.9340 C.3   194  ILE194      0.0022
     88  CD1       34.1530  -22.5010   -1.2080 C.3   194  ILE194      0.0001
     89  N         36.9820  -27.9510    4.1890 N.3   212  GLU212     -0.1231
     90  CA        37.4760  -26.6820    3.6700 C.3   212  GLU212      0.1699
     91  C         38.5430  -26.1200    4.5880 C.2   212  GLU212      0.2592
     92  O         39.6650  -25.8530    4.1610 O.2   212  GLU212     -0.2718
     93  CB        36.3420  -25.6620    3.5590 C.3   212  GLU212      0.0402
     94  CG        35.6350  -25.6390    2.2300 C.3   212  GLU212      0.1161
     95  CD        34.6400  -24.4970    2.1380 C.2   212  GLU212      0.3649
     96  OE1       35.0130  -23.3530    2.4570 O.co2 212  GLU212     -0.2457
     97  OE2       33.4870  -24.7400    1.7440 O.co2 212  GLU212     -0.2457
     98  N         38.1830  -25.9440    5.8550 N.am  213  ASN213     -0.1974
     99  CA        39.1060  -25.3960    6.8410 C.3   213  ASN213      0.1688
    100  C         40.3130  -26.2870    7.1000 C.2   213  ASN213      0.2292
    101  O         41.4080  -25.7910    7.3700 O.2   213  ASN213     -0.2864
    102  CB        38.3740  -25.1220    8.1580 C.3   213  ASN213      0.1181
    103  CG        37.4260  -23.9430    8.0610 C.2   213  ASN213      0.2629
    104  OD1       37.8200  -22.8510    7.6580 O.2   213  ASN213     -0.2716
    105  ND2       36.1730  -24.1570    8.4350 N.am  213  ASN213     -0.0877
    106  N         43.6010  -25.7760    4.3690 N.3   216  PHE216     -0.1241
    107  CA        44.6020  -24.7440    4.5880 C.3   216  PHE216      0.1605
    108  C         45.2560  -24.7960    5.9620 C.2   216  PHE216      0.2264
    109  O         46.3890  -24.3390    6.1230 O.2   216  PHE216     -0.2867
    110  CB        44.0160  -23.3580    4.2920 C.3   216  PHE216      0.0534
    111  CG        44.0050  -23.0260    2.8230 C.ar  216  PHE216     -0.0203
    112  CD1       45.2000  -22.8500    2.1320 C.ar  216  PHE216     -0.0042
    113  CD2       42.8110  -22.9540    2.1170 C.ar  216  PHE216     -0.0042
    114  CE1       45.2070  -22.6120    0.7580 C.ar  216  PHE216     -0.0003
    115  CE2       42.8070  -22.7150    0.7420 C.ar  216  PHE216     -0.0003
    116  CZ        44.0070  -22.5450    0.0620 C.ar  216  PHE216     -0.0000
    117  N         49.0690  -24.4170    5.3170 N.3   220  VAL220     -0.1245
    118  CA        49.7690  -23.2410    5.8360 C.3   220  VAL220      0.1561
    119  C         49.6270  -22.9860    7.3370 C.2   220  VAL220      0.2260
    120  O         50.1390  -21.9860    7.8480 O.2   220  VAL220     -0.2867
    121  CB        49.3390  -21.9560    5.0840 C.3   220  VAL220      0.0252
    122  CG1       49.6060  -22.1180    3.5970 C.3   220  VAL220      0.0019
    123  CG2       47.8700  -21.6620    5.3400 C.3   220  VAL220      0.0019
    124  N         46.8150  -22.3790    8.9940 N.3   222  TYR222     -0.1227
    125  CA        45.7280  -21.4770    9.3350 C.3   222  TYR222      0.1736
    126  C         44.6660  -21.4470    8.2460 C.2   222  TYR222      0.2596
    127  O         44.9640  -21.6220    7.0640 O.2   222  TYR222     -0.2718
    128  CB        46.2620  -20.0560    9.5490 C.3   222  TYR222      0.0548
    129  CG        45.1740  -19.0570    9.8640 C.ar  222  TYR222     -0.0200
    130  CD1       44.4530  -19.1370   11.0580 C.ar  222  TYR222     -0.0009
    131  CD2       44.8290  -18.0590    8.9500 C.ar  222  TYR222     -0.0009
    132  CE1       43.4130  -18.2500   11.3350 C.ar  222  TYR222      0.0417
    133  CE2       43.7860  -17.1640    9.2170 C.ar  222  TYR222      0.0417
    134  CZ        43.0830  -17.2670   10.4110 C.ar  222  TYR222      0.1957
    135  OH        42.0500  -16.3960   10.6830 O.3   222  TYR222     -0.2866
    136  N         43.4250  -21.2280    8.6580 N.am  223  SER223     -0.1938
    137  CA        42.3070  -21.1340    7.7310 C.3   223  SER223      0.2055
    138  C         41.4920  -19.9250    8.1750 C.2   223  SER223      0.2643
    139  O         41.0090  -19.8770    9.3060 O.2   223  SER223     -0.2714
    140  CB        41.4520  -22.3990    7.7860 C.3   223  SER223      0.2130
    141  OG        40.3770  -22.3190    6.8660 O.3   223  SER223     -0.2179
    142  N         41.3340  -18.9460    7.2920 N.am  224  ILE224     -0.1963
    143  CA        40.5970  -17.7460    7.6590 C.3   224  ILE224      0.1727
    144  C         39.0910  -17.9730    7.7970 C.2   224  ILE224      0.2617
    145  O         38.4360  -17.3070    8.5960 O.2   224  ILE224     -0.2715
    146  CB        40.8910  -16.5910    6.6610 C.3   224  ILE224      0.0290
    147  CG1       40.4660  -15.2550    7.2730 C.3   224  ILE224      0.0022
    148  CG2       40.1630  -16.8220    5.3480 C.3   224  ILE224      0.0023
    149  CD1       40.8480  -14.0550    6.4340 C.3   224  ILE224      0.0001
    150  N         38.5360  -18.9150    7.0380 N.am  225  GLY225     -0.1940
    151  CA        37.1090  -19.1780    7.1480 C.3   225  GLY225      0.2014
    152  C         36.2860  -18.7740    5.9400 C.2   225  GLY225      0.2638
    153  O         36.6530  -17.8600    5.2030 O.2   225  GLY225     -0.2714
    154  N         35.1540  -19.4520    5.7620 N.am  226  ALA226     -0.1977
    155  CA        34.2470  -19.2340    4.6360 C.3   226  ALA226      0.1597
    156  C         33.7790  -17.7970    4.4110 C.2   226  ALA226      0.2287
    157  O         33.9300  -17.2620    3.3140 O.2   226  ALA226     -0.2864
    158  CB        33.0400  -20.1650    4.7680 C.3   226  ALA226      0.0319
    159  N         36.9720  -15.1400    4.0450 N.3   229  ILE229     -0.1245
    160  CA        37.7730  -15.0920    2.8290 C.3   229  ILE229      0.1561
    161  C         37.1180  -14.1390    1.8300 C.2   229  ILE229      0.2260
    162  O         37.7890  -13.5510    0.9810 O.2   229  ILE229     -0.2867
    163  CB        37.9460  -16.5040    2.1860 C.3   229  ILE229      0.0252
    164  CG1       38.8850  -16.4110    0.9820 C.3   229  ILE229      0.0019
    165  CG2       36.5980  -17.0650    1.7400 C.3   229  ILE229      0.0019
    166  CD1       40.2800  -15.9050    1.3230 C.3   229  ILE229      0.0001
    167  N         38.0160  -10.6980    3.1080 N.3   232  LEU232     -0.1245
    168  CA        39.4300  -10.5180    2.7920 C.3   232  LEU232      0.1561
    169  C         39.6400  -10.2250    1.3040 C.2   232  LEU232      0.2260
    170  O         40.4200   -9.3420    0.9360 O.2   232  LEU232     -0.2867
    171  CB        40.2250  -11.7650    3.1920 C.3   232  LEU232      0.0270
    172  CG        41.7110  -11.7370    2.8240 C.3   232  LEU232      0.0019
    173  CD1       42.3920  -10.5730    3.5240 C.3   232  LEU232      0.0001
    174  CD2       42.3590  -13.0540    3.2180 C.3   232  LEU232      0.0001
    175  N         38.7420   -6.7900    0.5090 N.3   235  PHE235     -0.1227
    176  CA        39.7590   -5.9340    1.1190 C.3   235  PHE235      0.1736
    177  C         41.0290   -5.8880    0.2660 C.2   235  PHE235      0.2595
    178  O         41.5770   -4.8150    0.0110 O.2   235  PHE235     -0.2718
    179  CB        40.0700   -6.4560    2.5330 C.3   235  PHE235      0.0547
    180  CG        41.1820   -5.7210    3.2420 C.ar  235  PHE235     -0.0202
    181  CD1       42.4900   -6.1850    3.1780 C.ar  235  PHE235     -0.0042
    182  CD2       40.9120   -4.5820    3.9970 C.ar  235  PHE235     -0.0042
    183  CE1       43.5190   -5.5330    3.8590 C.ar  235  PHE235     -0.0003
    184  CE2       41.9370   -3.9180    4.6830 C.ar  235  PHE235     -0.0003
    185  CZ        43.2410   -4.3960    4.6130 C.ar  235  PHE235     -0.0000
    186  N         41.4940   -7.0520   -0.1760 N.am  236  LEU236     -0.1980
    187  CA        42.6940   -7.1250   -0.9980 C.3   236  LEU236      0.1596
    188  C         42.4850   -6.4040   -2.3270 C.2   236  LEU236      0.2287
    189  O         43.3010   -5.5740   -2.7330 O.2   236  LEU236     -0.2864
    190  CB        43.0670   -8.5880   -1.2620 C.3   236  LEU236      0.0297
    191  CG        43.4500   -9.4450   -0.0500 C.3   236  LEU236      0.0022
    192  CD1       43.6810  -10.8890   -0.4930 C.3   236  LEU236      0.0001
    193  CD2       44.7030   -8.8800    0.6100 C.3   236  LEU236      0.0001
    194  N         45.4450    2.0330   -2.0450 N.3   243  THR243     -0.1218
    195  CA        46.8240    2.3800   -1.7050 C.3   243  THR243      0.1862
    196  C         47.5430    2.9310   -2.9390 C.2   243  THR243      0.2287
    197  O         48.3930    3.8140   -2.8270 O.2   243  THR243     -0.2866
    198  CB        47.6250    1.1700   -1.1570 C.3   243  THR243      0.1770
    199  OG1       47.7350    0.1650   -2.1680 O.3   243  THR243     -0.2211
    200  CG2       46.9430    0.5830    0.0730 C.3   243  THR243      0.0375
    201  N         47.5490    6.7580   -3.5820 N.3   246  PHE246     -0.1241
    202  CA        48.5440    7.5750   -2.8850 C.3   246  PHE246      0.1605
    203  C         49.8210    7.7040   -3.7150 C.2   246  PHE246      0.2264
    204  O         50.4300    8.7750   -3.7710 O.2   246  PHE246     -0.2867
    205  CB        48.8730    6.9580   -1.5210 C.3   246  PHE246      0.0534
    206  CG        47.7910    7.1450   -0.4930 C.ar  246  PHE246     -0.0203
    207  CD1       47.8010    8.2510    0.3570 C.ar  246  PHE246     -0.0042
    208  CD2       46.7490    6.2270   -0.3870 C.ar  246  PHE246     -0.0042
    209  CE1       46.7850    8.4420    1.2990 C.ar  246  PHE246     -0.0003
    210  CE2       45.7270    6.4060    0.5480 C.ar  246  PHE246     -0.0003
    211  CZ        45.7450    7.5170    1.3940 C.ar  246  PHE246     -0.0000
@<TRIPOS>BOND
     1    42    43    1
     2    43    46    1
     3    43    44    1
     4    45    44    2
     5    46    47    1
     6    44    50   am
     7    55    56    1
     8    18    19    1
     9    26    27    2
    10    26    25    1
    11    35    36    1
    12    47    48    1
    13    10    11    2
    14    10     9    1
    15    50    51    1
    16    83    84    2
    17    83    82    1
    18    52    53    2
    19    52    51    1
    20    65    66    2
    21    65    64    1
    22    56    57    1
    23    56    59    1
    24    19    20    1
    25    19    22    1
    26    73    74    1
    27    37    36    1
    28    37    38    2
    29    87    85    1
    30    20    21    2
    31    20    24   am
    32   204   203    2
    33   203   202    1
    34    24    25    1
    35    36    39    1
    36     1     7    1
    37     1     2    1
    38    85    82    1
    39    85    86    1
    40    57    63   am
    41    57    58    2
    42   201   202    1
    43    25    28    1
    44    63    64    1
    45    51    54    1
    46     9     8    1
    47    82    81    1
    48    14    15    2
    49    14    13    1
    50     7     6    1
    51    81    75   am
    52    28    29    1
    53     8     3   am
    54    70    68   ar
    55    70    72   ar
    56    62    60    1
    57    64    67    1
    58    12    13    1
    59   196   197    2
    60   196   195    1
    61    60    59    1
    62    60    61    1
    63   202   205    1
    64    23    22    1
    65    67    68    1
    66    75    74    1
    67    75    76    2
    68    48    49    1
    69    74    77    1
    70   189   188    2
    71     3     2    1
    72     3     4    2
    73    86    88    1
    74     2     5    1
    75    68    69   ar
    76    72    71   ar
    77   188   187    1
    78    39    40    1
    79    39    41    1
    80    13    16    1
    81   199   198    1
    82   194   195    1
    83     6     5    1
    84   195   198    1
    85    29    31   ar
    86    29    30   ar
    87    77    78    1
    88   205   206    1
    89    69    71   ar
    90    16    17    1
    91   190   187    1
    92   190   191    1
    93    31    33   ar
    94   198   200    1
    95   187   186    1
    96    30    32   ar
    97   206   208   ar
    98   206   207   ar
    99   192   191    1
   100   208   210   ar
   101    78    79    1
   102    78    80    1
   103   186   177   am
   104   191   193    1
   105   178   177    2
   106   116   115   ar
   107   116   114   ar
   108    33    34   ar
   109   177   176    1
   110   207   209   ar
   111   175   176    1
   112   210   211   ar
   113    32    34   ar
   114   115   113   ar
   115   114   112   ar
   116   170   169    2
   117   162   161    2
   118   164   166    1
   119   164   163    1
   120   176   179    1
   121   209   211   ar
   122   169   168    1
   123   165   163    1
   124    97    95   ar
   125   161   160    1
   126   113   111   ar
   127   112   111   ar
   128    95    94    1
   129    95    96   ar
   130   163   160    1
   131    94    93    1
   132   179   180    1
   133   168   167    1
   134   168   171    1
   135   111   110    1
   136   172   171    1
   137   172   174    1
   138   172   173    1
   139   160   159    1
   140   181   180   ar
   141   181   183   ar
   142   180   182   ar
   143   157   156    2
   144    93    90    1
   145   122   121    1
   146    90    89    1
   147    90    91    1
   148   183   185   ar
   149   182   184   ar
   150    92    91    2
   151   110   107    1
   152   106   107    1
   153   156   155    1
   154    91    98   am
   155   107   108    1
   156   185   184   ar
   157   155   158    1
   158   155   154    1
   159   121   123    1
   160   121   118    1
   161   153   152    2
   162   117   118    1
   163   148   146    1
   164   154   152   am
   165   118   119    1
   166    98    99    1
   167   152   151    1
   168   108   109    2
   169   149   147    1
   170   146   147    1
   171   146   143    1
   172    99   100    1
   173    99   102    1
   174   141   140    1
   175   150   151    1
   176   150   144   am
   177   127   126    2
   178   100   101    2
   179   142   143    1
   180   142   138   am
   181   119   120    2
   182   104   103    2
   183   143   144    1
   184   137   140    1
   185   137   138    1
   186   137   136    1
   187   144   145    2
   188   103   102    1
   189   103   105   am
   190   138   139    2
   191   126   136   am
   192   126   125    1
   193   131   133   ar
   194   131   129   ar
   195   124   125    1
   196   133   134   ar
   197   125   128    1
   198   128   129    1
   199   129   130   ar
   200   134   135    1
   201   134   132   ar
   202   130   132   ar
