@<TRIPOS>MOLECULE
tmp/1vrpB01.pdb
 144 133 0 0 0
SMALL
GASTEIGER

@<TRIPOS>ATOM
      1  N          8.8630   56.8300   59.8480 N.3    59  HIS59      -0.1241
      2  CA        10.0710   57.6030   59.6300 C.3    59  HIS59       0.1621
      3  C         10.6020   57.8500   61.0210 C.2    59  HIS59       0.2264
      4  O          9.8410   58.1670   61.9360 O.2    59  HIS59      -0.2867
      5  CB         9.7760   58.9260   58.9080 C.3    59  HIS59       0.0745
      6  CG        11.0030   59.7130   58.5550 C.ar   59  HIS59       0.0817
      7  ND1       11.6350   60.5510   59.4500 N.ar   59  HIS59      -0.2268
      8  CD2       11.7150   59.7860   57.4060 C.ar   59  HIS59       0.1154
      9  CE1       12.6820   61.1080   58.8680 C.ar   59  HIS59       0.1986
     10  NE2       12.7520   60.6620   57.6260 N.ar   59  HIS59      -0.2212
     11  N         10.0330   62.1860   61.6440 N.3    62  ILE62      -0.1231
     12  CA         8.8410   62.9450   61.2590 C.3    62  ILE62       0.1692
     13  C          7.7250   62.1630   60.5870 C.2    62  ILE62       0.2592
     14  O          7.9260   61.0480   60.1110 O.2    62  ILE62      -0.2718
     15  CB         9.1530   64.0850   60.2260 C.3    62  ILE62       0.0266
     16  CG1        9.3740   63.4620   58.8440 C.3    62  ILE62       0.0019
     17  CG2       10.3800   64.9140   60.5910 C.3    62  ILE62       0.0020
     18  CD1        9.4670   64.4250   57.6790 C.3    62  ILE62       0.0001
     19  N          6.5630   62.8030   60.4710 N.am   63  MET63      -0.1965
     20  CA         5.3820   62.2010   59.8430 C.3    63  MET63       0.1736
     21  C          5.5080   62.4560   58.3630 C.2    63  MET63       0.2617
     22  O          5.5880   63.6060   57.9360 O.2    63  MET63      -0.2715
     23  CB         4.0910   62.8350   60.3930 C.3    63  MET63       0.0427
     24  CG         2.8280   62.3490   59.6800 C.3    63  MET63       0.0599
     25  SD         2.5940   60.5740   59.8590 S.3    63  MET63      -0.1393
     26  CE         0.8560   60.4140   59.4710 C.3    63  MET63       0.0692
     27  N          5.5500   61.3850   57.5800 N.am   64  THR64      -0.1937
     28  CA         5.7190   61.5100   56.1440 C.3    64  THR64       0.2028
     29  C          4.4400   61.3850   55.3270 C.2    64  THR64       0.2642
     30  O          3.4300   60.8420   55.7860 O.2    64  THR64      -0.2714
     31  CB         6.7300   60.4750   55.6250 C.3    64  THR64       0.1808
     32  OG1        6.2720   59.1500   55.9440 O.3    64  THR64      -0.2208
     33  CG2        8.1090   60.7310   56.2480 C.3    64  THR64       0.0379
     34  N          4.5050   61.8870   54.1000 N.am   65  VAL65      -0.1963
     35  CA         3.3680   61.8750   53.1880 C.3    65  VAL65       0.1727
     36  C          3.1800   60.5170   52.5450 C.2    65  VAL65       0.2616
     37  O          2.0560   60.0470   52.4100 O.2    65  VAL65      -0.2715
     38  CB         3.5330   62.9560   52.1160 C.3    65  VAL65       0.0290
     39  CG1        2.4690   62.7940   51.0380 C.3    65  VAL65       0.0023
     40  CG2        3.4450   64.3400   52.7790 C.3    65  VAL65       0.0023
     41  N          4.2750   59.8840   52.1450 N.am   66  GLY66      -0.1955
     42  CA         4.1410   58.5500   51.5750 C.3    66  GLY66       0.1869
     43  C          3.6900   58.4210   50.1310 C.2    66  GLY66       0.2309
     44  O          3.2590   57.3350   49.7170 O.2    66  GLY66      -0.2863
     45  N         -2.1120   66.6030   55.3040 N.3    89  ARG89      -0.1245
     46  CA        -0.7760   67.1360   55.5410 C.3    89  ARG89       0.1563
     47  C         -0.6680   68.6550   55.7770 C.2    89  ARG89       0.2260
     48  O          0.1780   69.1000   56.5470 O.2    89  ARG89      -0.2867
     49  CB         0.1430   66.7440   54.3840 C.3    89  ARG89       0.0307
     50  CG         1.5240   67.3850   54.4640 C.3    89  ARG89       0.0489
     51  CD         2.3420   66.8160   55.6200 C.3    89  ARG89       0.2205
     52  NE         3.6700   67.4370   55.7140 N.pl3  89  ARG89      -0.0865
     53  CZ         3.8890   68.7070   56.0640 C.cat  89  ARG89       0.5346
     54  NH1        2.8680   69.5010   56.3540 N.pl3  89  ARG89       0.1354
     55  NH2        5.1240   69.1920   56.1430 N.pl3  89  ARG89       0.1354
     56  N         18.2170   59.4320   51.8150 N.3   192  SER192     -0.1217
     57  CA        16.8910   59.5960   52.3400 C.3   192  SER192      0.1889
     58  C         16.0500   58.4080   51.8760 C.2   192  SER192      0.2288
     59  O         16.1130   58.0230   50.7170 O.2   192  SER192     -0.2866
     60  CB        16.3030   60.8850   51.8010 C.3   192  SER192      0.2089
     61  OG        14.8950   60.7930   51.7790 O.3   192  SER192     -0.2183
     62  N         12.9590   58.2980   51.2610 N.3   194  LEU194     -0.1245
     63  CA        11.9940   58.7710   50.2620 C.3   194  LEU194      0.1561
     64  C         12.7140   58.9060   48.9270 C.2   194  LEU194      0.2260
     65  O         12.2640   58.3830   47.9060 O.2   194  LEU194     -0.2867
     66  CB        11.4210   60.1390   50.6440 C.3   194  LEU194      0.0270
     67  CG        10.6960   60.9230   49.5220 C.3   194  LEU194      0.0019
     68  CD1        9.3790   60.2490   49.1610 C.3   194  LEU194      0.0001
     69  CD2       10.4300   62.3320   49.9800 C.3   194  LEU194      0.0001
     70  N         15.5910   66.5900   44.9330 N.3   225  GLU225     -0.1245
     71  CA        14.2660   66.0410   45.2440 C.3   225  GLU225      0.1567
     72  C         13.3460   66.7970   44.2190 C.2   225  GLU225      0.2260
     73  O         12.3070   66.2770   43.8040 O.2   225  GLU225     -0.2867
     74  CB        13.8130   66.2880   46.7230 C.3   225  GLU225      0.0388
     75  CG        12.3690   65.7810   47.0030 C.3   225  GLU225      0.1160
     76  CD        12.0540   65.4720   48.4820 C.2   225  GLU225      0.3649
     77  OE1       10.9430   65.8430   48.9110 O.co2 225  GLU225     -0.2457
     78  OE2       12.8860   64.8390   49.1600 O.co2 225  GLU225     -0.2457
     79  N         16.0580   73.8650   43.8530 N.3   229  ARG229     -0.1245
     80  CA        15.7670   74.1940   45.2390 C.3   229  ARG229      0.1563
     81  C         16.5920   75.4730   45.3930 C.2   229  ARG229      0.2260
     82  O         17.8250   75.4490   45.3310 O.2   229  ARG229     -0.2867
     83  CB        16.2430   73.1050   46.2070 C.3   229  ARG229      0.0307
     84  CG        15.3450   71.8710   46.2710 C.3   229  ARG229      0.0489
     85  CD        13.9720   72.1620   46.8940 C.3   229  ARG229      0.2205
     86  NE        13.2020   70.9380   47.1310 N.pl3 229  ARG229     -0.0865
     87  CZ        13.2860   70.1800   48.2230 C.cat 229  ARG229      0.5346
     88  NH1       14.1070   70.5080   49.2190 N.pl3 229  ARG229      0.1354
     89  NH2       12.5540   69.0770   48.3140 N.pl3 229  ARG229      0.1354
     90  N          6.9600   66.2450   46.2680 N.3   276  CYS276     -0.1235
     91  CA         6.2040   65.8610   47.4490 C.3   276  CYS276      0.1677
     92  C          5.0520   66.8120   47.7310 C.2   276  CYS276      0.2270
     93  O          5.2030   68.0290   47.6470 O.2   276  CYS276     -0.2867
     94  CB         7.1160   65.8200   48.6850 C.3   276  CYS276      0.0956
     95  SG         6.2770   65.3080   50.2090 S.3   276  CYS276     -0.0801
     96  N          3.9090   67.7060   50.3830 N.3   278  SER278     -0.1202
     97  CA         4.2020   68.5730   51.5140 C.3   278  SER278      0.2020
     98  C          4.8840   69.8630   51.0580 C.2   278  SER278      0.2618
     99  O          4.9190   70.8470   51.7950 O.2   278  SER278     -0.2717
    100  CB         5.0910   67.8380   52.5330 C.3   278  SER278      0.2103
    101  OG         6.4350   67.7400   52.0860 O.3   278  SER278     -0.2182
    102  N          5.4250   69.8720   49.8440 N.am  279  ASN279     -0.1974
    103  CA         6.1140   71.0630   49.3450 C.3   279  ASN279      0.1688
    104  C          5.3210   71.9270   48.3510 C.2   279  ASN279      0.2292
    105  O          5.8830   72.8500   47.7540 O.2   279  ASN279     -0.2864
    106  CB         7.4530   70.6350   48.7240 C.3   279  ASN279      0.1181
    107  CG         8.5040   70.3420   49.7730 C.2   279  ASN279      0.2629
    108  OD1        8.7340   71.1690   50.6490 O.2   279  ASN279     -0.2716
    109  ND2        9.1430   69.1710   49.6980 N.am  279  ASN279     -0.0877
    110  N          7.7730   72.6150   62.3690 N.3   311  GLN311     -0.1245
    111  CA         8.2590   71.2380   62.3540 C.3   311  GLN311      0.1566
    112  C          9.7110   71.2200   62.8200 C.2   311  GLN311      0.2260
    113  O         10.4800   72.1320   62.5140 O.2   311  GLN311     -0.2867
    114  CB         8.1690   70.6740   60.9360 C.3   311  GLN311      0.0367
    115  CG         8.8450   69.3320   60.7440 C.3   311  GLN311      0.0905
    116  CD         8.9010   68.9250   59.2830 C.2   311  GLN311      0.2608
    117  OE1        9.5600   69.5740   58.4700 O.2   311  GLN311     -0.2717
    118  NE2        8.2040   67.8490   58.9440 N.am  311  GLN311     -0.0878
    119  N         13.4240   69.2650   62.9230 N.3   313  ARG313     -0.1245
    120  CA        14.2700   68.3440   62.1830 C.3   313  ARG313      0.1563
    121  C         15.6280   68.3100   62.8590 C.2   313  ARG313      0.2260
    122  O         15.9210   69.1500   63.7110 O.2   313  ARG313     -0.2867
    123  CB        14.4210   68.8130   60.7380 C.3   313  ARG313      0.0307
    124  CG        13.1090   68.8520   59.9880 C.3   313  ARG313      0.0489
    125  CD        13.3100   69.1100   58.5080 C.3   313  ARG313      0.2205
    126  NE        12.0420   69.0790   57.7860 N.pl3 313  ARG313     -0.0865
    127  CZ        11.9350   68.9370   56.4700 C.cat 313  ARG313      0.5346
    128  NH1       13.0270   68.8010   55.7210 N.pl3 313  ARG313      0.1354
    129  NH2       10.7370   68.9410   55.9000 N.pl3 313  ARG313      0.1354
    130  N         16.2510   66.6430   57.7640 N.3   318  VAL318     -0.1231
    131  CA        15.1280   65.7790   58.1150 C.3   318  VAL318      0.1692
    132  C         15.5000   64.3000   58.3880 C.2   318  VAL318      0.2592
    133  O         14.8010   63.6200   59.1310 O.2   318  VAL318     -0.2718
    134  CB        13.9930   65.8800   57.0070 C.3   318  VAL318      0.0266
    135  CG1       14.5110   65.4090   55.6660 C.3   318  VAL318      0.0020
    136  CG2       12.7970   65.0480   57.3900 C.3   318  VAL318      0.0020
    137  N         16.5870   63.8020   57.8060 N.am  319  ASP319     -0.1974
    138  CA        16.9650   62.4000   58.0310 C.3   319  ASP319      0.1709
    139  C         17.9760   62.2160   59.2030 C.2   319  ASP319      0.2293
    140  O         18.5600   61.1460   59.3450 O.2   319  ASP319     -0.2864
    141  CB        17.5640   61.7780   56.7320 C.3   319  ASP319      0.1436
    142  CG        16.5000   61.3760   55.6750 C.2   319  ASP319      0.3671
    143  OD1       16.8950   60.8510   54.6130 O.co2 319  ASP319     -0.2456
    144  OD2       15.2940   61.5590   55.9030 O.co2 319  ASP319     -0.2456
@<TRIPOS>BOND
     1    73    72    2
     2    79    80    1
     3    72    71    1
     4    70    71    1
     5    80    81    1
     6    80    83    1
     7    71    74    1
     8    82    81    2
     9    83    84    1
    10    90    91    1
    11    84    85    1
    12    74    75    1
    13    85    86    1
    14    75    76    1
    15    86    87    2
    16    91    92    1
    17    91    94    1
    18    93    92    2
    19   105   104    2
    20    65    64    2
    21    87    89    1
    22    87    88    1
    23   104   103    1
    24    76    77   ar
    25    76    78   ar
    26    94    95    1
    27   106   103    1
    28   106   107    1
    29    64    63    1
    30    68    67    1
    31   103   102    1
    32    67    69    1
    33    67    66    1
    34   109   107   am
    35    44    43    2
    36   107   108    2
    37   102    98   am
    38    43    42    1
    39    63    66    1
    40    63    62    1
    41    96    97    1
    42    59    58    2
    43    39    38    1
    44    98    97    1
    45    98    99    2
    46    97   100    1
    47    42    41    1
    48    61    60    1
    49    60    57    1
    50    56    57    1
    51    58    57    1
    52   101   100    1
    53    38    40    1
    54    38    35    1
    55    41    36   am
    56    37    36    2
    57    36    35    1
    58    35    34    1
    59    34    29   am
    60    49    50    1
    61    49    46    1
    62    50    51    1
    63   143   142   ar
    64    45    46    1
    65    29    30    2
    66    29    28    1
    67    46    47    1
    68    51    52    1
    69    31    32    1
    70    31    28    1
    71    31    33    1
    72   135   134    1
    73   142   144   ar
    74   142   141    1
    75    52    53    2
    76   128   127    1
    77    47    48    2
    78   129   127    1
    79    53    55    1
    80    53    54    1
    81    28    27    1
    82   127   126    2
    83   141   138    1
    84   134   136    1
    85   134   131    1
    86     8    10   ar
    87     8     6   ar
    88    27    21   am
    89    10     9   ar
    90    18    16    1
    91   130   131    1
    92   126   125    1
    93   137   138    1
    94   137   132   am
    95    22    21    2
    96   138   139    1
    97   131   132    1
    98    21    20    1
    99   132   133    2
   100   117   116    2
   101   125   124    1
   102     6     5    1
   103     6     7   ar
   104    16    15    1
   105     9     7   ar
   106     5     2    1
   107   118   116   am
   108   139   140    2
   109   116   115    1
   110    26    25    1
   111     2     1    1
   112     2     3    1
   113    24    25    1
   114    24    23    1
   115    20    23    1
   116    20    19    1
   117   124   123    1
   118    14    13    2
   119    15    17    1
   120    15    12    1
   121    19    13   am
   122    13    12    1
   123   123   120    1
   124   115   114    1
   125   114   111    1
   126     3     4    2
   127    12    11    1
   128   120   121    1
   129   120   119    1
   130   111   110    1
   131   111   112    1
   132   113   112    2
   133   121   122    2
