@<TRIPOS>MOLECULE
tmp/1vruA00.pdb
 137 134 0 0 0
SMALL
GASTEIGER

@<TRIPOS>ATOM
      1  N          9.6370  -30.8860   23.7190 N.3    93  PRO93      -0.2116
      2  CA         8.9370  -31.0410   22.4360 C.3    93  PRO93       0.1372
      3  C          7.9030  -29.9450   22.2710 C.2    93  PRO93       0.2244
      4  O          7.1880  -29.6010   23.2120 O.2    93  PRO93      -0.2868
      5  CB         8.2010  -32.3680   22.5950 C.3    93  PRO93       0.0268
      6  CG         9.0640  -33.1030   23.5200 C.3    93  PRO93       0.0207
      7  CD         9.4650  -32.0940   24.5380 C.3    93  PRO93       0.0892
      8  N          4.3270  -32.6780   16.5480 N.3    98  LEU98      -0.1231
      9  CA         3.6340  -33.9700   16.5720 C.3    98  LEU98       0.1693
     10  C          2.7630  -34.1760   15.3100 C.2    98  LEU98       0.2591
     11  O          2.4240  -33.2160   14.5850 O.2    98  LEU98      -0.2718
     12  CB         2.7520  -34.0920   17.8260 C.3    98  LEU98       0.0284
     13  CG         3.4070  -33.6470   19.1290 C.3    98  LEU98       0.0019
     14  CD1        2.5110  -33.8290   20.3440 C.3    98  LEU98       0.0001
     15  CD2        4.6390  -34.4020   19.3110 C.3    98  LEU98       0.0001
     16  N          2.5370  -35.4550   14.9930 N.am   99  LYS99      -0.1980
     17  CA         1.6970  -35.9130   13.8870 C.3    99  LYS99       0.1596
     18  C          0.4030  -36.2580   14.6440 C.2    99  LYS99       0.2287
     19  O          0.4770  -36.6690   15.8250 O.2    99  LYS99      -0.2864
     20  CB         2.2510  -37.2060   13.3110 C.3    99  LYS99       0.0298
     21  CG         3.4530  -37.0560   12.4270 C.3    99  LYS99       0.0038
     22  CD         4.6810  -36.5530   13.1640 C.3    99  LYS99       0.0206
     23  CE         5.9000  -36.5010   12.2320 C.3    99  LYS99       0.1093
     24  NZ         7.1180  -35.9140   12.8680 N.3    99  LYS99      -0.1314
     25  N         -2.9110  -38.1870   16.0570 N.3   101  LYS101     -0.1245
     26  CA        -3.2440  -39.5410   16.4190 C.3   101  LYS101      0.1561
     27  C         -4.7500  -39.5810   16.2770 C.2   101  LYS101      0.2260
     28  O         -5.3670  -38.5840   15.9030 O.2   101  LYS101     -0.2867
     29  CB        -2.8020  -39.8690   17.8580 C.3   101  LYS101      0.0271
     30  CG        -1.2900  -40.1580   17.9740 C.3   101  LYS101      0.0035
     31  CD        -0.8900  -40.9670   16.7740 C.3   101  LYS101      0.0206
     32  CE         0.5150  -40.7310   16.2990 C.3   101  LYS101      0.1093
     33  NZ         0.6000  -41.2990   14.8850 N.3   101  LYS101     -0.1314
     34  N         -5.6340  -41.4900   21.9530 N.3   104  VAL104     -0.1245
     35  CA        -4.4660  -41.2410   22.7910 C.3   104  VAL104      0.1561
     36  C         -4.7930  -41.5740   24.2290 C.2   104  VAL104      0.2260
     37  O         -5.7940  -41.1410   24.7440 O.2   104  VAL104     -0.2867
     38  CB        -3.9260  -39.7140   22.7300 C.3   104  VAL104      0.0252
     39  CG1       -2.5930  -39.6100   23.4520 C.3   104  VAL104      0.0019
     40  CG2       -3.6980  -39.2160   21.2890 C.3   104  VAL104      0.0019
     41  N          2.7230  -44.8520   19.1390 N.3   177  VAL177     -0.1245
     42  CA         3.7330  -43.8810   19.5380 C.3   177  VAL177      0.1561
     43  C          3.6810  -43.7360   21.0380 C.2   177  VAL177      0.2260
     44  O          2.6380  -43.3990   21.5900 O.2   177  VAL177     -0.2867
     45  CB         3.3940  -42.4890   18.9980 C.3   177  VAL177      0.0252
     46  CG1        4.4410  -41.4940   19.4090 C.3   177  VAL177      0.0019
     47  CG2        3.2540  -42.5150   17.5140 C.3   177  VAL177      0.0019
     48  N          5.4950  -41.7800   24.3460 N.3   179  TYR179     -0.1241
     49  CA         6.3460  -40.6870   24.7810 C.3   179  TYR179      0.1605
     50  C          6.3740  -40.7340   26.2910 C.2   179  TYR179      0.2264
     51  O          5.3550  -40.6920   26.9510 O.2   179  TYR179     -0.2867
     52  CB         5.8370  -39.3280   24.2560 C.3   179  TYR179      0.0534
     53  CG         6.5570  -38.1190   24.8450 C.ar  179  TYR179     -0.0201
     54  CD1        7.8570  -37.7960   24.4620 C.ar  179  TYR179     -0.0009
     55  CD2        5.9840  -37.3980   25.9140 C.ar  179  TYR179     -0.0009
     56  CE1        8.5770  -36.8010   25.1540 C.ar  179  TYR179      0.0417
     57  CE2        6.6940  -36.4130   26.6050 C.ar  179  TYR179      0.0417
     58  CZ         7.9880  -36.1270   26.2290 C.ar  179  TYR179      0.1957
     59  OH         8.6960  -35.2200   26.9880 O.3   179  TYR179     -0.2866
     60  N          2.2990  -41.2960   27.3460 N.3   186  TYR186     -0.1241
     61  CA         1.3010  -40.9700   26.3550 C.3   186  TYR186      0.1605
     62  C          1.4700  -42.0310   25.3070 C.2   186  TYR186      0.2264
     63  O          2.5590  -42.2380   24.7890 O.2   186  TYR186     -0.2867
     64  CB         1.5460  -39.5820   25.7870 C.3   186  TYR186      0.0534
     65  CG         1.4420  -38.5190   26.8540 C.ar  186  TYR186     -0.0201
     66  CD1        2.4750  -38.3190   27.7830 C.ar  186  TYR186     -0.0009
     67  CD2        0.3100  -37.7210   26.9430 C.ar  186  TYR186     -0.0009
     68  CE1        2.3770  -37.3570   28.7680 C.ar  186  TYR186      0.0417
     69  CE2        0.1970  -36.7590   27.9170 C.ar  186  TYR186      0.0417
     70  CZ         1.2260  -36.5680   28.8310 C.ar  186  TYR186      0.1957
     71  OH         1.0740  -35.5790   29.7950 O.3   186  TYR186     -0.2866
     72  N         -0.3030  -43.2310   21.8760 N.3   188  GLY188     -0.1225
     73  CA        -1.3150  -42.8760   20.9120 C.3   188  GLY188      0.1811
     74  C         -1.1730  -43.6890   19.6640 C.2   188  GLY188      0.2280
     75  O         -0.1050  -44.2550   19.4130 O.2   188  GLY188     -0.2866
     76  N         -5.2360  -32.9390   27.0850 N.3   225  PHE225     -0.1241
     77  CA        -4.2480  -33.0640   28.1170 C.3   225  PHE225      0.1605
     78  C         -3.6340  -31.6810   28.2300 C.2   225  PHE225      0.2264
     79  O         -3.4330  -30.9660   27.2450 O.2   225  PHE225     -0.2867
     80  CB        -3.2180  -34.0780   27.7160 C.3   225  PHE225      0.0534
     81  CG        -3.7880  -35.4240   27.4680 C.ar  225  PHE225     -0.0203
     82  CD1       -4.2370  -36.2010   28.5230 C.ar  225  PHE225     -0.0042
     83  CD2       -3.8030  -35.9620   26.1900 C.ar  225  PHE225     -0.0042
     84  CE1       -4.6850  -37.5120   28.2980 C.ar  225  PHE225     -0.0003
     85  CE2       -4.2430  -37.2560   25.9670 C.ar  225  PHE225     -0.0003
     86  CZ        -4.6810  -38.0350   27.0220 C.ar  225  PHE225     -0.0000
     87  N         -0.5780  -29.9650   29.1230 N.3   227  TRP227     -0.1241
     88  CA         0.8130  -30.2330   29.3860 C.3   227  TRP227      0.1605
     89  C          1.6610  -29.0470   28.9980 C.2   227  TRP227      0.2264
     90  O          1.4840  -28.5050   27.8880 O.2   227  TRP227     -0.2867
     91  CB         1.2150  -31.4930   28.6100 C.3   227  TRP227      0.0550
     92  CG         2.6610  -31.7550   28.5550 C.ar  227  TRP227      0.0003
     93  CD1        3.4170  -32.4710   29.4610 C.ar  227  TRP227      0.0946
     94  CD2        3.5510  -31.3350   27.5250 C.ar  227  TRP227      0.0152
     95  NE1        4.7200  -32.5310   29.0440 N.ar  227  TRP227     -0.2442
     96  CE2        4.8400  -31.8350   27.8600 C.ar  227  TRP227      0.0810
     97  CE3        3.3900  -30.5610   26.3530 C.ar  227  TRP227      0.0012
     98  CZ2        5.9800  -31.5980   27.0520 C.ar  227  TRP227      0.0191
     99  CZ3        4.5310  -30.3160   25.5430 C.ar  227  TRP227      0.0001
    100  CH2        5.8130  -30.8390   25.9090 C.ar  227  TRP227      0.0015
    101  N         -3.5650  -30.2650   24.6890 N.3   232  LEU232     -0.1231
    102  CA        -3.4000  -31.2490   23.6410 C.3   232  LEU232      0.1693
    103  C         -4.5440  -32.2070   23.2860 C.2   232  LEU232      0.2592
    104  O         -4.9770  -33.0480   24.0820 O.2   232  LEU232     -0.2718
    105  CB        -2.1220  -32.0410   23.9330 C.3   232  LEU232      0.0284
    106  CG        -0.8600  -31.2160   24.2610 C.3   232  LEU232      0.0019
    107  CD1        0.2890  -32.1250   24.5190 C.3   232  LEU232      0.0001
    108  CD2       -0.5070  -30.2760   23.1350 C.3   232  LEU232      0.0001
    109  N         -5.0370  -32.0870   22.0670 N.am  233  HIS233     -0.1962
    110  CA        -6.0940  -32.9650   21.5840 C.3   233  HIS233      0.1772
    111  C         -5.4390  -33.8740   20.5920 C.2   233  HIS233      0.2462
    112  O         -4.4170  -33.5380   20.0040 O.2   233  HIS233     -0.2730
    113  CB        -7.1750  -32.1870   20.8330 C.3   233  HIS233      0.0785
    114  CG        -8.0100  -31.3140   21.7100 C.ar  233  HIS233      0.0821
    115  ND1       -9.2270  -31.7170   22.2220 N.ar  233  HIS233     -0.2267
    116  CD2       -7.8020  -30.0640   22.1840 C.ar  233  HIS233      0.1154
    117  CE1       -9.7300  -30.7570   22.9750 C.ar  233  HIS233      0.1986
    118  NE2       -8.8820  -29.7430   22.9670 N.ar  233  HIS233     -0.2212
    119  N         -6.0560  -35.0170   20.3370 N.am  234  PRO234     -0.2727
    120  CA        -5.5240  -35.9900   19.3810 C.3   234  PRO234      0.1402
    121  C         -5.2570  -35.3770   18.0210 C.2   234  PRO234      0.2269
    122  O         -4.2930  -35.7250   17.3390 O.2   234  PRO234     -0.2865
    123  CB        -6.6620  -37.0180   19.2900 C.3   234  PRO234      0.0296
    124  CG        -7.1260  -37.0730   20.7000 C.3   234  PRO234      0.0237
    125  CD        -7.1860  -35.5930   21.0930 C.3   234  PRO234      0.0939
    126  N         -1.4340  -30.1850   13.6080 N.3   315  TYR315     -0.1241
    127  CA        -0.2130  -30.9640   13.8110 C.3   315  TYR315      0.1605
    128  C          0.5010  -31.1320   12.4770 C.2   315  TYR315      0.2264
    129  O         -0.0380  -30.8210   11.4060 O.2   315  TYR315     -0.2867
    130  CB        -0.4970  -32.3320   14.4340 C.3   315  TYR315      0.0534
    131  CG        -0.8810  -32.2770   15.8880 C.ar  315  TYR315     -0.0201
    132  CD1       -0.0670  -31.6240   16.8230 C.ar  315  TYR315     -0.0009
    133  CD2       -2.0620  -32.8960   16.3480 C.ar  315  TYR315     -0.0009
    134  CE1       -0.4160  -31.5790   18.1800 C.ar  315  TYR315      0.0417
    135  CE2       -2.4090  -32.8670   17.7010 C.ar  315  TYR315      0.0417
    136  CZ        -1.5820  -32.2090   18.6180 C.ar  315  TYR315      0.1957
    137  OH        -1.8930  -32.2220   19.9720 O.3   315  TYR315     -0.2866
@<TRIPOS>BOND
     1   129   128    2
     2    23    24    1
     3    23    22    1
     4    21    22    1
     5    21    20    1
     6   128   127    1
     7    20    17    1
     8   126   127    1
     9   127   130    1
    10    17    18    1
    11    17    16    1
    12   130   131    1
    13    11    10    2
    14    18    19    2
    15    33    32    1
    16    16    10   am
    17    10     9    1
    18   131   133   ar
    19   131   132   ar
    20    28    27    2
    21    25    26    1
    22    27    26    1
    23    32    31    1
    24   133   135   ar
    25    26    29    1
    26     8     9    1
    27     9    12    1
    28    31    30    1
    29   132   134   ar
    30   122   121    2
    31    47    45    1
    32   135   136   ar
    33    12    13    1
    34    29    30    1
    35   121   120    1
    36   134   136   ar
    37   136   137    1
    38    45    46    1
    39    45    42    1
    40    13    15    1
    41    13    14    1
    42    41    42    1
    43   123   120    1
    44   123   124    1
    45   120   119    1
    46    75    74    2
    47    42    43    1
    48    74    73    1
    49   112   111    2
    50   119   111   am
    51   119   125    1
    52   111   110    1
    53   124   125    1
    54   113   110    1
    55   113   114    1
    56    73    72    1
    57    43    44    2
    58    40    38    1
    59   110   109    1
    60   114   116   ar
    61   114   115   ar
    62    34    35    1
    63   109   103   am
    64   116   118   ar
    65   115   117   ar
    66     3     2    1
    67     3     4    2
    68     2     5    1
    69     2     1    1
    70     5     6    1
    71    38    35    1
    72    38    39    1
    73    35    36    1
    74   118   117   ar
    75   108   106    1
    76   103   102    1
    77   103   104    2
    78     6     7    1
    79   102   105    1
    80   102   101    1
    81     1     7    1
    82   105   106    1
    83    36    37    2
    84    52    49    1
    85    52    53    1
    86   106   107    1
    87    48    49    1
    88    54    53   ar
    89    54    56   ar
    90    49    50    1
    91    63    62    2
    92    53    55   ar
    93    56    58   ar
    94    62    61    1
    95    99   100   ar
    96    99    97   ar
    97    64    61    1
    98    64    65    1
    99   100    98   ar
   100    55    57   ar
   101    85    83   ar
   102    85    86   ar
   103    83    81   ar
   104    58    57   ar
   105    58    59    1
   106    50    51    2
   107    97    94   ar
   108    61    60    1
   109    65    67   ar
   110    65    66   ar
   111    67    69   ar
   112    86    84   ar
   113    98    96   ar
   114    76    77    1
   115    79    78    2
   116    81    80    1
   117    81    82   ar
   118    94    96   ar
   119    94    92   ar
   120    80    77    1
   121    66    68   ar
   122    96    95   ar
   123    90    89    2
   124    69    70   ar
   125    77    78    1
   126    84    82   ar
   127    92    91    1
   128    92    93   ar
   129    91    88    1
   130    68    70   ar
   131    70    71    1
   132    89    88    1
   133    95    93   ar
   134    87    88    1
