@<TRIPOS>MOLECULE
tmp/1vsgB00.pdb
 130 121 0 0 0
SMALL
GASTEIGER

@<TRIPOS>ATOM
      1  N         70.4420    6.0150   76.1600 N.3    38  LYS38      -0.1245
      2  CA        69.0830    6.4800   76.2210 C.3    38  LYS38       0.1561
      3  C         68.6750    7.2100   74.9370 C.2    38  LYS38       0.2260
      4  O         67.6160    6.9000   74.3740 O.2    38  LYS38      -0.2867
      5  CB        68.9670    7.3620   77.4300 C.3    38  LYS38       0.0271
      6  CG        68.9430    6.5040   78.6750 C.3    38  LYS38       0.0035
      7  CD        67.9360    7.1220   79.6170 C.3    38  LYS38       0.0206
      8  CE        68.0540    6.5610   81.0160 C.3    38  LYS38       0.1093
      9  NZ        69.3100    6.9990   81.5990 N.3    38  LYS38      -0.1314
     10  N         67.9570    4.6200   72.5430 N.3    41  LYS41      -0.1231
     11  CA        66.6890    3.9440   72.7340 C.3    41  LYS41       0.1693
     12  C         65.4900    4.7220   72.1960 C.2    41  LYS41       0.2591
     13  O         64.5420    4.1360   71.6540 O.2    41  LYS41      -0.2718
     14  CB        66.4820    3.6370   74.1950 C.3    41  LYS41       0.0285
     15  CG        67.1380    2.4090   74.6990 C.3    41  LYS41       0.0035
     16  CD        66.5000    2.0910   76.0120 C.3    41  LYS41       0.0206
     17  CE        67.0970    0.9390   76.7080 C.3    41  LYS41       0.1093
     18  NZ        68.3440    1.3070   77.4390 N.3    41  LYS41      -0.1314
     19  N         65.5270    6.0520   72.3330 N.am   42  MET42      -0.1979
     20  CA        64.5030    6.9190   71.8080 C.3    42  MET42       0.1605
     21  C         64.5350    6.8910   70.2780 C.2    42  MET42       0.2287
     22  O         63.4830    6.7780   69.6290 O.2    42  MET42      -0.2864
     23  CB        64.7410    8.3180   72.3120 C.3    42  MET42       0.0413
     24  CG        64.5290    8.4940   73.8220 C.3    42  MET42       0.0598
     25  SD        62.8660    8.1410   74.4780 S.3    42  MET42      -0.1393
     26  CE        63.1930    8.6760   76.1440 C.3    42  MET42       0.0692
     27  N         63.0460    3.7780   68.9250 N.3    45  ALA45      -0.1245
     28  CA        61.6100    3.8570   68.9420 C.3    45  ALA45       0.1562
     29  C         61.1050    4.6690   67.7520 C.2    45  ALA45       0.2260
     30  O         60.2250    4.2260   66.9930 O.2    45  ALA45      -0.2867
     31  CB        61.1920    4.4590   70.2830 C.3    45  ALA45       0.0290
     32  N         61.4620    2.5690   64.5820 N.3    48  ARG48      -0.1231
     33  CA        60.4750    1.5290   64.5180 C.3    48  ARG48       0.1694
     34  C         59.1390    2.1320   64.1150 C.2    48  ARG48       0.2591
     35  O         58.4700    1.5930   63.2220 O.2    48  ARG48      -0.2718
     36  CB        60.4130    0.8230   65.8800 C.3    48  ARG48       0.0321
     37  CG        61.4160   -0.2990   65.8140 C.3    48  ARG48       0.0489
     38  CD        61.5640   -1.1210   67.0750 C.3    48  ARG48       0.2205
     39  NE        62.1560   -0.3140   68.1190 N.pl3  48  ARG48      -0.0865
     40  CZ        62.9760   -0.7690   69.0610 C.cat  48  ARG48       0.5346
     41  NH1       63.3900    0.1370   69.9580 N.pl3  48  ARG48       0.1354
     42  NH2       63.3690   -2.0370   69.1570 N.pl3  48  ARG48       0.1354
     43  N         58.7610    3.2850   64.6630 N.am   49  ALA49      -0.1980
     44  CA        57.5070    3.9100   64.2690 C.3    49  ALA49       0.1597
     45  C         57.4750    4.3810   62.8050 C.2    49  ALA49       0.2287
     46  O         56.4860    4.1820   62.0940 O.2    49  ALA49      -0.2864
     47  CB        57.2280    5.1000   65.1590 C.3    49  ALA49       0.0319
     48  N         53.9120    9.1800   66.6910 N.3    68  VAL68      -0.1245
     49  CA        54.7700    8.4770   67.6270 C.3    68  VAL68       0.1561
     50  C         56.2530    8.6830   67.2390 C.2    68  VAL68       0.2260
     51  O         57.0550    9.1850   68.0530 O.2    68  VAL68      -0.2867
     52  CB        54.3750    6.9840   67.6200 C.3    68  VAL68       0.0252
     53  CG1       55.1870    6.2160   68.6300 C.3    68  VAL68       0.0019
     54  CG2       52.9230    6.8410   68.0050 C.3    68  VAL68       0.0019
     55  N         59.5510   10.5020   69.3790 N.3    72  TYR72      -0.1241
     56  CA        60.7910    9.8330   69.6950 C.3    72  TYR72       0.1605
     57  C         62.0020   10.3970   68.9810 C.2    72  TYR72       0.2264
     58  O         63.1130   10.3560   69.5160 O.2    72  TYR72      -0.2867
     59  CB        60.6150    8.3840   69.3800 C.3    72  TYR72       0.0534
     60  CG        59.7520    7.6940   70.4210 C.ar   72  TYR72      -0.0201
     61  CD1       60.2040    7.6570   71.7410 C.ar   72  TYR72      -0.0009
     62  CD2       58.5370    7.0990   70.0670 C.ar   72  TYR72      -0.0009
     63  CE1       59.4500    7.0360   72.7110 C.ar   72  TYR72       0.0417
     64  CE2       57.7850    6.4710   71.0450 C.ar   72  TYR72       0.0417
     65  CZ        58.2510    6.4390   72.3610 C.ar   72  TYR72       0.1957
     66  OH        57.5360    5.7710   73.3370 O.3    72  TYR72      -0.2866
     67  N         65.5830   12.2200   78.7370 N.3   261  PHE261     -0.1241
     68  CA        65.9820   10.8450   78.7240 C.3   261  PHE261      0.1605
     69  C         64.9180    9.9600   79.3440 C.2   261  PHE261      0.2264
     70  O         65.0480    8.7220   79.3980 O.2   261  PHE261     -0.2867
     71  CB        67.3050   10.7480   79.4720 C.3   261  PHE261      0.0534
     72  CG        68.3840   11.6890   78.9680 C.ar  261  PHE261     -0.0203
     73  CD1       69.1520   11.3240   77.8790 C.ar  261  PHE261     -0.0042
     74  CD2       68.5790   12.9050   79.6290 C.ar  261  PHE261     -0.0042
     75  CE1       70.1200   12.2110   77.4530 C.ar  261  PHE261     -0.0003
     76  CE2       69.5450   13.7760   79.1930 C.ar  261  PHE261     -0.0003
     77  CZ        70.3170   13.4250   78.1050 C.ar  261  PHE261     -0.0000
     78  N         60.8660    8.7360   79.3660 N.3   263  ASN263     -0.1240
     79  CA        59.6880    8.6280   78.5330 C.3   263  ASN263      0.1653
     80  C         58.5190    9.3220   79.2270 C.2   263  ASN263      0.2266
     81  O         58.5300    9.5160   80.4570 O.2   263  ASN263     -0.2867
     82  CB        59.3520    7.1810   78.2980 C.3   263  ASN263      0.1155
     83  CG        59.8370    6.7640   76.9500 C.2   263  ASN263      0.2627
     84  OD1       59.6040    7.5080   75.9960 O.2   263  ASN263     -0.2716
     85  ND2       60.5120    5.6090   76.8450 N.am  263  ASN263     -0.0877
     86  N         51.8850    1.5540   69.6410 N.3   313  GLU313     -0.1245
     87  CA        53.2170    1.0470   69.8950 C.3   313  GLU313      0.1567
     88  C         53.3030   -0.4520   69.8280 C.2   313  GLU313      0.2260
     89  O         54.3770   -0.9720   69.4820 O.2   313  GLU313     -0.2867
     90  CB        53.7000    1.4900   71.2360 C.3   313  GLU313      0.0388
     91  CG        53.8720    3.0030   71.2160 C.3   313  GLU313      0.1160
     92  CD        54.8170    3.5670   72.2690 C.2   313  GLU313      0.3649
     93  OE1       55.5060    4.5140   71.9130 O.co2 313  GLU313     -0.2457
     94  OE2       54.8600    3.0690   73.4070 O.co2 313  GLU313     -0.2457
     95  N         53.2050   -1.3280   66.0600 N.3   316  ILE316     -0.1231
     96  CA        54.5620   -1.0420   65.6330 C.3   316  ILE316      0.1692
     97  C         55.4720   -2.1760   66.0230 C.2   316  ILE316      0.2593
     98  O         56.0650   -2.7560   65.1390 O.2   316  ILE316     -0.2718
     99  CB        55.0020    0.3000   66.2660 C.3   316  ILE316      0.0266
    100  CG1       54.1180    1.3720   65.6490 C.3   316  ILE316      0.0019
    101  CG2       56.4800    0.5920   66.0610 C.3   316  ILE316      0.0020
    102  CD1       54.2970    2.7610   66.2190 C.3   316  ILE316      0.0001
    103  N         55.5220   -2.5950   67.2820 N.am  317  SER317     -0.1938
    104  CA        56.3760   -3.7010   67.6870 C.3   317  SER317      0.2055
    105  C         56.0930   -5.0390   67.0420 C.2   317  SER317      0.2642
    106  O         57.0680   -5.7210   66.6840 O.2   317  SER317     -0.2714
    107  CB        56.3070   -3.8800   69.1710 C.3   317  SER317      0.2130
    108  OG        56.8090   -2.6620   69.7060 O.3   317  SER317     -0.2179
    109  N         54.8100   -5.4010   66.8760 N.am  318  GLU318     -0.1976
    110  CA        54.4360   -6.6820   66.2710 C.3   318  GLU318      0.1602
    111  C         54.7050   -6.7610   64.7680 C.2   318  GLU318      0.2287
    112  O         54.8080   -7.8420   64.1820 O.2   318  GLU318     -0.2864
    113  CB        52.9480   -6.9650   66.5010 C.3   318  GLU318      0.0415
    114  CG        52.3540   -7.0990   67.9220 C.3   318  GLU318      0.1163
    115  CD        53.0310   -8.0730   68.9000 C.2   318  GLU318      0.3649
    116  OE1       53.7320   -9.0130   68.4620 O.co2 318  GLU318     -0.2457
    117  OE2       52.8410   -7.8710   70.1190 O.co2 318  GLU318     -0.2457
    118  N         59.7400   -4.8470   67.1970 N.3   335  GLY335     -0.1210
    119  CA        59.9270   -4.8400   68.6400 C.3   335  GLY335      0.1956
    120  C         61.1320   -5.7010   69.0050 C.2   335  GLY335      0.2611
    121  O         61.7500   -5.5410   70.0660 O.2   335  GLY335     -0.2717
    122  N         61.5040   -6.6180   68.1290 N.am  336  GLU336     -0.1979
    123  CA        62.6050   -7.4800   68.4060 C.3   336  GLU336      0.1602
    124  C         63.8740   -7.0760   67.6690 C.2   336  GLU336      0.2287
    125  O         64.7740   -7.9210   67.5250 O.2   336  GLU336     -0.2864
    126  CB        62.2780   -8.8720   68.0040 C.3   336  GLU336      0.0415
    127  CG        61.0580   -9.4720   68.6250 C.3   336  GLU336      0.1163
    128  CD        60.8310  -10.8540   68.0500 C.2   336  GLU336      0.3649
    129  OE1       60.5050  -11.7250   68.8510 O.co2 336  GLU336     -0.2457
    130  OE2       60.9600  -11.0760   66.8290 O.co2 336  GLU336     -0.2457
@<TRIPOS>BOND
     1    46    45    2
     2    45    44    1
     3    35    34    2
     4    34    33    1
     5    34    43   am
     6   112   111    2
     7    44    43    1
     8    44    47    1
     9    33    32    1
    10    33    36    1
    11   111   110    1
    12    98    97    2
    13    96    97    1
    14    96    95    1
    15    96    99    1
    16   100   102    1
    17   100    99    1
    18    37    36    1
    19    37    38    1
    20    97   103   am
    21   101    99    1
    22   110   113    1
    23   110   109    1
    24   113   114    1
    25   106   105    2
    26    48    49    1
    27   130   128   ar
    28   109   105   am
    29    30    29    2
    30   105   104    1
    31    38    39    1
    32   118   119    1
    33    50    49    1
    34    50    51    2
    35   103   104    1
    36   125   124    2
    37    52    49    1
    38    52    54    1
    39    52    53    1
    40   124   123    1
    41   104   107    1
    42    29    28    1
    43   114   115    1
    44   126   123    1
    45   126   127    1
    46   128   127    1
    47   128   129   ar
    48    39    40    2
    49   122   123    1
    50   122   120   am
    51   116   115   ar
    52   119   120    1
    53   115   117   ar
    54    27    28    1
    55    28    31    1
    56    57    58    2
    57    57    56    1
    58   120   121    2
    59    40    42    1
    60    40    41    1
    61   107   108    1
    62    55    56    1
    63    59    56    1
    64    59    60    1
    65    89    88    2
    66    22    21    2
    67    86    87    1
    68    88    87    1
    69    87    90    1
    70    62    60   ar
    71    62    64   ar
    72    21    20    1
    73    60    61   ar
    74    64    65   ar
    75    91    90    1
    76    91    92    1
    77    13    12    2
    78    61    63   ar
    79    20    23    1
    80    20    19    1
    81    93    92   ar
    82    12    19   am
    83    12    11    1
    84    92    94   ar
    85    23    24    1
    86    65    63   ar
    87    65    66    1
    88    10    11    1
    89    11    14    1
    90    24    25    1
    91    14    15    1
    92     4     3    2
    93    25    26    1
    94    15    16    1
    95     3     2    1
    96    84    83    2
    97    16    17    1
    98     1     2    1
    99     2     5    1
   100    17    18    1
   101    85    83   am
   102    83    82    1
   103     5     6    1
   104    75    73   ar
   105    75    77   ar
   106    73    72   ar
   107    77    76   ar
   108    82    79    1
   109    79    80    1
   110    79    78    1
   111     6     7    1
   112    68    67    1
   113    68    69    1
   114    68    71    1
   115    72    71    1
   116    72    74   ar
   117    76    74   ar
   118    80    81    2
   119    69    70    2
   120     7     8    1
   121     8     9    1
