@<TRIPOS>MOLECULE
tmp/1vsnA00.pdb
 140 136 0 0 0
SMALL
GASTEIGER

@<TRIPOS>ATOM
      1  N          6.6710   12.2160   11.3100 N.3    19  GLN19      -0.1245
      2  CA         5.2700   12.6430   11.3530 C.3    19  GLN19       0.1566
      3  C          4.2840   11.5750   10.8900 C.2    19  GLN19       0.2260
      4  O          3.0960   11.6480   11.2120 O.2    19  GLN19      -0.2867
      5  CB         5.0670   13.9310   10.5390 C.3    19  GLN19       0.0367
      6  CG         5.3220   13.8530    9.0400 C.3    19  GLN19       0.0905
      7  CD         5.0910   15.2110    8.4110 C.2    19  GLN19       0.2608
      8  OE1        5.9350   16.0900    8.5730 O.2    19  GLN19      -0.2717
      9  NE2        3.9760   15.4090    7.7120 N.am   19  GLN19      -0.0878
     10  N         -0.5070   15.1750    8.0980 N.3    23  GLY23      -0.1225
     11  CA         0.0530   16.4550    7.6770 C.3    23  GLY23       0.1811
     12  C          0.2490   17.4060    8.8480 C.2    23  GLY23       0.2280
     13  O         -0.2960   18.5100    8.8770 O.2    23  GLY23      -0.2866
     14  N          3.3060   18.6200    9.8170 N.3    25  CYS25      -0.1221
     15  CA         4.6400   19.2300    9.6680 C.3    25  CYS25       0.1808
     16  C          4.7570   20.5730   10.4060 C.2    25  CYS25       0.2601
     17  O          5.7940   20.8850   10.9820 O.2    25  CYS25      -0.2717
     18  CB         4.9750   19.4210    8.1960 C.3    25  CYS25       0.0970
     19  SG         3.8470   20.5060    7.2250 S.3    25  CYS25      -0.0800
     20  N          3.6570   21.3300   10.4130 N.am   26  TRP26      -0.1976
     21  CA         3.5680   22.6280   11.0920 C.3    26  TRP26       0.1640
     22  C          3.7610   22.4860   12.6250 C.2    26  TRP26       0.2290
     23  O          4.3130   23.3750   13.2780 O.2    26  TRP26      -0.2864
     24  CB         2.2070   23.2910   10.7860 C.3    26  TRP26       0.0576
     25  CG         1.0190   22.4550   11.1710 C.ar   26  TRP26       0.0006
     26  CD1        0.4190   21.4910   10.4190 C.ar   26  TRP26       0.0946
     27  CD2        0.2990   22.5120   12.4070 C.ar   26  TRP26       0.0152
     28  NE1       -0.6370   20.9350   11.1040 N.ar   26  TRP26      -0.2442
     29  CE2       -0.7360   21.5390   12.3310 C.ar   26  TRP26       0.0810
     30  CE3        0.4290   23.2860   13.5830 C.ar   26  TRP26       0.0012
     31  CZ2       -1.6480   21.3160   13.3880 C.ar   26  TRP26       0.0191
     32  CZ3       -0.4810   23.0640   14.6510 C.ar   26  TRP26       0.0001
     33  CH2       -1.5070   22.0820   14.5340 C.ar   26  TRP26       0.0015
     34  N         -7.4500   25.0750   17.3480 N.3    58  SER58      -0.1202
     35  CA        -8.7170   25.1500   16.6220 C.3    58  SER58       0.2020
     36  C         -8.6650   25.9480   15.3270 C.2    58  SER58       0.2619
     37  O         -9.5260   25.7820   14.4700 O.2    58  SER58      -0.2717
     38  CB        -9.8270   25.6680   17.5380 C.3    58  SER58       0.2103
     39  OG        -9.4960   26.9240   18.1480 O.3    58  SER58      -0.2182
     40  N         -7.6350   26.7820   15.1750 N.am   59  GLU59      -0.1965
     41  CA        -7.4440   27.5880   13.9640 C.3    59  GLU59       0.1733
     42  C         -6.7070   26.7840   12.8730 C.2    59  GLU59       0.2616
     43  O         -6.5720   27.2380   11.7330 O.2    59  GLU59      -0.2715
     44  CB        -6.6780   28.8930   14.2750 C.3    59  GLU59       0.0429
     45  CG        -7.3280   29.9240   15.2000 C.3    59  GLU59       0.1163
     46  CD        -7.4110   29.5970   16.6940 C.2    59  GLU59       0.3649
     47  OE1       -6.7110   28.6990   17.2060 O.co2  59  GLU59      -0.2457
     48  OE2       -8.1990   30.2680   17.3530 O.co2  59  GLU59      -0.2457
     49  N         -6.1950   25.6160   13.2570 N.am   60  ASN60      -0.1958
     50  CA        -5.5030   24.7250   12.3350 C.3    60  ASN60       0.1819
     51  C         -6.4090   23.5180   12.0120 C.2    60  ASN60       0.2621
     52  O         -7.5310   23.4260   12.5310 O.2    60  ASN60      -0.2715
     53  CB        -4.1140   24.3200   12.8660 C.3    60  ASN60       0.1195
     54  CG        -3.0560   25.4660   12.7040 C.2    60  ASN60       0.2630
     55  OD1       -3.1810   26.3280   11.8340 O.2    60  ASN60      -0.2716
     56  ND2       -2.0160   25.4360   13.5260 N.am   60  ASN60      -0.0877
     57  N         -5.9560   22.6560   11.1070 N.am   61  ASP61      -0.1971
     58  CA        -6.7500   21.5090   10.6690 C.3    61  ASP61       0.1709
     59  C         -6.2020   20.1470   11.0990 C.2    61  ASP61       0.2293
     60  O         -6.5680   19.1260   10.5140 O.2    61  ASP61      -0.2864
     61  CB        -6.9000   21.5610    9.0900 C.3    61  ASP61       0.1436
     62  CG        -8.1820   20.8690    8.5810 C.2    61  ASP61       0.3671
     63  OD1       -8.0930   20.2540    7.5220 O.co2  61  ASP61      -0.2456
     64  OD2       -9.2360   20.9490    9.2230 O.co2  61  ASP61      -0.2456
     65  N         -4.6850   17.5970    8.7200 N.3    64  GLY64      -0.1210
     66  CA        -5.0380   18.1830    7.4390 C.3    64  GLY64       0.1956
     67  C         -4.1430   19.3550    7.0780 C.2    64  GLY64       0.2612
     68  O         -4.1850   19.8580    5.9530 O.2    64  GLY64      -0.2717
     69  N         -3.3480   19.7990    8.0490 N.am   65  GLY65      -0.1942
     70  CA        -2.4290   20.9040    7.8400 C.3    65  GLY65       0.2014
     71  C         -2.6470   22.0810    8.7690 C.2    65  GLY65       0.2639
     72  O         -3.5470   22.0630    9.6100 O.2    65  GLY65      -0.2714
     73  N         -1.8100   23.1060    8.6210 N.am   66  GLY66      -0.1939
     74  CA        -1.9130   24.2870    9.4570 C.3    66  GLY66       0.2014
     75  C         -0.7150   25.2170    9.3810 C.2    66  GLY66       0.2639
     76  O          0.1940   25.0100    8.5760 O.2    66  GLY66      -0.2714
     77  N         -0.7180   26.2410   10.2350 N.am   67  TYR67      -0.1959
     78  CA         0.3490   27.2390   10.2930 C.3    67  TYR67       0.1771
     79  C          1.0150   27.2740   11.6310 C.2    67  TYR67       0.2619
     80  O          0.3740   27.0390   12.6590 O.2    67  TYR67      -0.2715
     81  CB        -0.2080   28.6530    9.9730 C.3    67  TYR67       0.0574
     82  CG        -0.6520   28.8340    8.5400 C.ar   67  TYR67      -0.0198
     83  CD1       -2.0210   28.9500    8.2140 C.ar   67  TYR67      -0.0009
     84  CD2        0.2940   28.8860    7.4910 C.ar   67  TYR67      -0.0009
     85  CE1       -2.4490   29.1180    6.8430 C.ar   67  TYR67       0.0417
     86  CE2       -0.1180   29.0480    6.1240 C.ar   67  TYR67       0.0417
     87  CZ        -1.4830   29.1610    5.8200 C.ar   67  TYR67       0.1957
     88  OH        -1.8620   29.3030    4.5070 O.3    67  TYR67      -0.2866
     89  N          2.3020   27.6230   11.6320 N.am   68  MET68      -0.1977
     90  CA         3.1030   27.7220   12.8480 C.3    68  MET68       0.1605
     91  C          2.6960   28.8940   13.7270 C.2    68  MET68       0.2287
     92  O          2.7560   28.7970   14.9490 O.2    68  MET68      -0.2864
     93  CB         4.5860   27.8290   12.5170 C.3    68  MET68       0.0413
     94  CG         5.2400   26.5950   11.9070 C.3    68  MET68       0.0598
     95  SD         4.9280   26.4270   10.1520 S.3    68  MET68      -0.1393
     96  CE         6.2280   27.4750    9.5030 C.3    68  MET68       0.0692
     97  N          8.7770   27.7750    6.1050 N.3   134  ALA134     -0.1245
     98  CA         7.8860   27.1120    5.1560 C.3   134  ALA134      0.1562
     99  C          8.5850   27.0240    3.7950 C.2   134  ALA134      0.2260
    100  O          9.2170   27.9900    3.3430 O.2   134  ALA134     -0.2867
    101  CB         6.5750   27.8720    5.0250 C.3   134  ALA134      0.0290
    102  N          4.0830   27.2520   -1.3060 N.3   160  LEU160     -0.1231
    103  CA         4.5490   26.7360   -0.0110 C.3   160  LEU160      0.1693
    104  C          3.5520   25.6550    0.4640 C.2   160  LEU160      0.2592
    105  O          2.3480   25.9050    0.5500 O.2   160  LEU160     -0.2718
    106  CB         4.6410   27.8720    1.0120 C.3   160  LEU160      0.0284
    107  CG         5.4650   29.1530    0.7280 C.3   160  LEU160      0.0019
    108  CD1        5.3050   30.1480    1.8720 C.3   160  LEU160      0.0001
    109  CD2        6.9420   28.8300    0.5850 C.3   160  LEU160      0.0001
    110  N          4.0770   24.4760    0.7860 N.am  161  ASN161     -0.1960
    111  CA         3.2600   23.3330    1.1930 C.3   161  ASN161      0.1819
    112  C          3.8030   22.5030    2.3600 C.2   161  ASN161      0.2621
    113  O          3.1370   21.5700    2.8170 O.2   161  ASN161     -0.2715
    114  CB         3.0710   22.3940   -0.0400 C.3   161  ASN161      0.1195
    115  CG         4.4120   22.0850   -0.7620 C.2   161  ASN161      0.2630
    116  OD1        5.3210   21.4760   -0.1940 O.2   161  ASN161     -0.2716
    117  ND2        4.5320   22.5510   -2.0040 N.am  161  ASN161     -0.0877
    118  N          5.0100   22.8310    2.8220 N.am  162  HIS162     -0.1959
    119  CA         5.6570   22.0770    3.8930 C.3   162  HIS162      0.1787
    120  C          6.3250   22.9780    4.9290 C.2   162  HIS162      0.2620
    121  O          6.7980   24.0630    4.6030 O.2   162  HIS162     -0.2715
    122  CB         6.6860   21.1440    3.2620 C.3   162  HIS162      0.0785
    123  CG         7.2170   20.0960    4.1890 C.ar  162  HIS162      0.0821
    124  ND1        6.4010   19.3070    4.9710 N.ar  162  HIS162     -0.2267
    125  CD2        8.4840   19.6990    4.4460 C.ar  162  HIS162      0.1154
    126  CE1        7.1450   18.4690    5.6700 C.ar  162  HIS162      0.1986
    127  NE2        8.4130   18.6870    5.3700 N.ar  162  HIS162     -0.2212
    128  N          6.3840   22.5030    6.1700 N.am  163  ALA163     -0.1977
    129  CA         6.9980   23.2540    7.2600 C.3   163  ALA163      0.1597
    130  C          8.1490   22.4870    7.8750 C.2   163  ALA163      0.2287
    131  O          8.0290   21.3010    8.2050 O.2   163  ALA163     -0.2864
    132  CB         5.9720   23.5970    8.3070 C.3   163  ALA163      0.0319
    133  N          7.8340   32.5800    4.7370 N.3   209  LEU209     -0.1245
    134  CA         6.9470   32.4270    5.8920 C.3   209  LEU209      0.1561
    135  C          7.6930   31.8820    7.0980 C.2   209  LEU209      0.2260
    136  O          7.3870   30.8030    7.6150 O.2   209  LEU209     -0.2867
    137  CB         5.7500   31.5190    5.5210 C.3   209  LEU209      0.0270
    138  CG         4.3860   31.6530    6.2220 C.3   209  LEU209      0.0019
    139  CD1        3.7940   33.0380    5.9790 C.3   209  LEU209      0.0001
    140  CD2        3.4400   30.5910    5.6900 C.3   209  LEU209      0.0001
@<TRIPOS>BOND
     1   117   115   am
     2   102   103    1
     3   115   116    2
     4   115   114    1
     5   114   111    1
     6   103   104    1
     7   103   106    1
     8   104   105    2
     9   104   110   am
    10   109   107    1
    11   107   106    1
    12   107   108    1
    13   110   111    1
    14   111   112    1
    15   112   113    2
    16   112   118   am
    17   118   119    1
    18   122   119    1
    19   122   123    1
    20   100    99    2
    21    99    98    1
    22   119   120    1
    23   123   125   ar
    24   123   124   ar
    25   125   127   ar
    26    88    87    1
    27   121   120    2
    28   133   134    1
    29   120   128   am
    30   124   126   ar
    31   101    98    1
    32    98    97    1
    33   127   126   ar
    34   137   134    1
    35   137   138    1
    36   140   138    1
    37    87    86   ar
    38    87    85   ar
    39   134   135    1
    40    68    67    2
    41   139   138    1
    42    86    84   ar
    43   128   129    1
    44    85    83   ar
    45    67    66    1
    46    67    69   am
    47   135   136    2
    48    19    18    1
    49   129   130    1
    50   129   132    1
    51    66    65    1
    52    84    82   ar
    53    63    62   ar
    54    11    10    1
    55    11    12    1
    56     9     7   am
    57    70    69    1
    58    70    71    1
    59   130   131    2
    60    18    15    1
    61    83    82   ar
    62     7     8    2
    63     7     6    1
    64    82    81    1
    65    76    75    2
    66    62    61    1
    67    62    64   ar
    68    73    71   am
    69    73    74    1
    70    71    72    2
    71    12    13    2
    72     6     5    1
    73    61    58    1
    74    75    74    1
    75    75    77   am
    76    96    95    1
    77    15    14    1
    78    15    16    1
    79    81    78    1
    80    95    94    1
    81    77    78    1
    82    78    79    1
    83    16    20   am
    84    16    17    2
    85    20    21    1
    86    26    28   ar
    87    26    25   ar
    88    60    59    2
    89     5     2    1
    90    58    59    1
    91    58    57    1
    92    24    21    1
    93    24    25    1
    94     3     4    2
    95     3     2    1
    96    21    22    1
    97    28    29   ar
    98    57    51   am
    99    25    27   ar
   100     1     2    1
   101    79    89   am
   102    79    80    2
   103    89    90    1
   104    43    42    2
   105    55    54    2
   106    94    93    1
   107    51    50    1
   108    51    52    2
   109    29    27   ar
   110    29    31   ar
   111    50    53    1
   112    50    49    1
   113    27    30   ar
   114    93    90    1
   115    22    23    2
   116    54    53    1
   117    54    56   am
   118    90    91    1
   119    42    49   am
   120    42    41    1
   121    31    33   ar
   122    30    32   ar
   123    91    92    2
   124    41    44    1
   125    41    40    1
   126    44    45    1
   127    37    36    2
   128    33    32   ar
   129    40    36   am
   130    45    46    1
   131    36    35    1
   132    35    34    1
   133    35    38    1
   134    46    47   ar
   135    46    48   ar
   136    38    39    1
