@<TRIPOS>MOLECULE
tmp/1vsoA00.pdb
 141 135 0 0 0
SMALL
GASTEIGER

@<TRIPOS>ATOM
      1  N         39.1820   15.9980    5.8180 N.3     9  GLU9       -0.1231
      2  CA        39.3710   15.0260    6.8890 C.3     9  GLU9        0.1699
      3  C         40.4710   15.5430    7.8080 C.2     9  GLU9        0.2592
      4  O         41.6140   15.6870    7.3880 O.2     9  GLU9       -0.2718
      5  CB        39.7940   13.6790    6.2980 C.3     9  GLU9        0.0402
      6  CG        39.7630   12.5350    7.2910 C.3     9  GLU9        0.1161
      7  CD        38.3640   11.9900    7.5000 C.2     9  GLU9        0.3649
      8  OE1       37.8350   11.3430    6.5750 O.co2   9  GLU9       -0.2457
      9  OE2       37.7950   12.2110    8.5850 O.co2   9  GLU9       -0.2457
     10  N         40.1210   15.8200    9.0590 N.am   10  GLU10      -0.1979
     11  CA        41.0820   16.3330   10.0340 C.3    10  GLU10       0.1602
     12  C         42.1030   15.2550   10.4100 C.2    10  GLU10       0.2287
     13  O         41.7220   14.1240   10.7080 O.2    10  GLU10      -0.2864
     14  CB        40.3340   16.7810   11.2870 C.3    10  GLU10       0.0415
     15  CG        41.0950   17.7520   12.1490 C.3    10  GLU10       0.1163
     16  CD        40.3480   18.1070   13.4150 C.2    10  GLU10       0.3649
     17  OE1       39.0990   18.0990   13.3980 O.co2  10  GLU10      -0.2457
     18  OE2       41.0150   18.4070   14.4270 O.co2  10  GLU10      -0.2457
     19  N         44.2860   15.9000    7.8450 N.3    12  TYR12      -0.1241
     20  CA        44.8640   15.7340    6.5180 C.3    12  TYR12       0.1605
     21  C         44.5440   16.9150    5.6140 C.2    12  TYR12       0.2264
     22  O         45.4360   17.4880    4.9820 O.2    12  TYR12      -0.2867
     23  CB        44.3330   14.4430    5.8880 C.3    12  TYR12       0.0534
     24  CG        44.5930   13.2220    6.7420 C.ar   12  TYR12      -0.0201
     25  CD1       45.8170   12.5530    6.6840 C.ar   12  TYR12      -0.0009
     26  CD2       43.6260   12.7550    7.6320 C.ar   12  TYR12      -0.0009
     27  CE1       46.0720   11.4440    7.4970 C.ar   12  TYR12       0.0417
     28  CE2       43.8680   11.6500    8.4500 C.ar   12  TYR12       0.0417
     29  CZ        45.0920   11.0020    8.3760 C.ar   12  TYR12       0.1957
     30  OH        45.3330    9.9220    9.1900 O.3    12  TYR12      -0.2866
     31  N         35.8370    7.8930    0.0250 N.3    57  TYR57      -0.1241
     32  CA        37.2050    7.4920   -0.2770 C.3    57  TYR57       0.1605
     33  C         37.2580    6.6210   -1.5290 C.2    57  TYR57       0.2264
     34  O         38.0630    6.8630   -2.4320 O.2    57  TYR57      -0.2867
     35  CB        37.8060    6.7580    0.9240 C.3    57  TYR57       0.0534
     36  CG        38.2690    7.7170    2.0010 C.ar   57  TYR57      -0.0201
     37  CD1       39.5640    8.2240    1.9890 C.ar   57  TYR57      -0.0009
     38  CD2       37.3870    8.1870    2.9730 C.ar   57  TYR57      -0.0009
     39  CE1       39.9730    9.1850    2.9120 C.ar   57  TYR57       0.0417
     40  CE2       37.7850    9.1550    3.9040 C.ar   57  TYR57       0.0417
     41  CZ        39.0800    9.6500    3.8590 C.ar   57  TYR57       0.1957
     42  OH        39.4730   10.6470    4.7220 O.3    57  TYR57      -0.2866
     43  N         44.3600   10.2260    2.9860 N.3    79  PRO79      -0.2102
     44  CA        44.6290    9.0030    3.7530 C.3    79  PRO79       0.1504
     45  C         43.8210    7.8480    3.1470 C.2    79  PRO79       0.2576
     46  O         42.8810    7.3200    3.7500 O.2    79  PRO79      -0.2718
     47  CB        44.1880    9.3800    5.1640 C.3    79  PRO79       0.0282
     48  CG        43.0820   10.3710    4.9170 C.3    79  PRO79       0.0208
     49  CD        43.6220   11.2130    3.7950 C.3    79  PRO79       0.0893
     50  N         44.2160    7.4760    1.9330 N.am   80  LEU80      -0.1966
     51  CA        43.5680    6.4180    1.1640 C.3    80  LEU80       0.1728
     52  C         44.3100    5.1040    1.3640 C.2    80  LEU80       0.2616
     53  O         45.4500    4.9480    0.9250 O.2    80  LEU80      -0.2715
     54  CB        43.5790    6.8020   -0.3130 C.3    80  LEU80       0.0311
     55  CG        42.8150    5.9170   -1.2920 C.3    80  LEU80       0.0022
     56  CD1       41.3300    5.9600   -0.9700 C.3    80  LEU80       0.0001
     57  CD2       43.0750    6.4100   -2.7020 C.3    80  LEU80       0.0001
     58  N         43.6590    4.1560    2.0230 N.am   81  THR81      -0.1951
     59  CA        44.2860    2.8720    2.2920 C.3    81  THR81       0.1897
     60  C         44.5410    2.0370    1.0420 C.2    81  THR81       0.2313
     61  O         43.6660    1.8710    0.1810 O.2    81  THR81      -0.2863
     62  CB        43.4470    2.0430    3.2790 C.3    81  THR81       0.1794
     63  OG1       43.1890    2.8250    4.4540 O.3    81  THR81      -0.2208
     64  CG2       44.1990    0.7670    3.6870 C.3    81  THR81       0.0378
     65  N         41.2390   -2.1130   -4.3810 N.3    86  ARG86      -0.1245
     66  CA        41.5410   -0.8080   -4.9790 C.3    86  ARG86       0.1563
     67  C         42.7540   -0.8530   -5.9120 C.2    86  ARG86       0.2260
     68  O         42.7650   -0.2080   -6.9650 O.2    86  ARG86      -0.2867
     69  CB        41.7880    0.2350   -3.8860 C.3    86  ARG86       0.0307
     70  CG        40.5370    0.6910   -3.1370 C.3    86  ARG86       0.0489
     71  CD        40.9090    1.6360   -1.9860 C.3    86  ARG86       0.2205
     72  NE        39.7360    2.1670   -1.2890 N.pl3  86  ARG86      -0.0865
     73  CZ        39.7750    2.7310   -0.0840 C.cat  86  ARG86       0.5346
     74  NH1       40.9260    2.8330    0.5660 N.pl3  86  ARG86       0.1354
     75  NH2       38.6650    3.2070    0.4710 N.pl3  86  ARG86       0.1354
     76  N         32.5550    0.4800   14.2390 N.3   128  VAL128     -0.1245
     77  CA        31.5140    1.0750   13.4150 C.3   128  VAL128      0.1561
     78  C         30.8220   -0.0240   12.6160 C.2   128  VAL128      0.2260
     79  O         31.4630   -0.7820   11.8850 O.2   128  VAL128     -0.2867
     80  CB        32.1060    2.1280   12.4480 C.3   128  VAL128      0.0252
     81  CG1       31.0250    2.6580   11.5090 C.3   128  VAL128      0.0019
     82  CG2       32.7070    3.2740   13.2490 C.3   128  VAL128      0.0019
     83  N         31.7780   -1.5630    8.9650 N.3   131  GLY131     -0.1210
     84  CA        32.9980   -0.9620    8.4550 C.3   131  GLY131      0.1956
     85  C         34.0410   -2.0380    8.2270 C.2   131  GLY131      0.2613
     86  O         33.7820   -3.2170    8.4850 O.2   131  GLY131     -0.2717
     87  N         35.2170   -1.6490    7.7480 N.am  132  SER132     -0.1938
     88  CA        36.2820   -2.6140    7.4970 C.3   132  SER132      0.2055
     89  C         36.8210   -3.1890    8.8030 C.2   132  SER132      0.2643
     90  O         37.3460   -4.3010    8.8280 O.2   132  SER132     -0.2714
     91  CB        37.4230   -1.9660    6.7050 C.3   132  SER132      0.2130
     92  OG        38.0510   -0.9320    7.4450 O.3   132  SER132     -0.2179
     93  N         36.6910   -2.4350    9.8900 N.am  133  THR133     -0.1950
     94  CA        37.1670   -2.9160   11.1790 C.3   133  THR133      0.1897
     95  C         36.2700   -4.0550   11.6570 C.2   133  THR133      0.2313
     96  O         36.7560   -5.0900   12.1160 O.2   133  THR133     -0.2863
     97  CB        37.1770   -1.7940   12.2300 C.3   133  THR133      0.1794
     98  OG1       38.0380   -0.7380   11.7800 O.3   133  THR133     -0.2208
     99  CG2       37.6910   -2.3240   13.5720 C.3   133  THR133      0.0378
    100  N         39.2290    1.0540   15.9400 N.3   177  MET177     -0.1230
    101  CA        39.2020    1.8500   14.7170 C.3   177  MET177      0.1702
    102  C         40.6070    2.1160   14.1860 C.2   177  MET177      0.2592
    103  O         41.5890    1.6330   14.7500 O.2   177  MET177     -0.2718
    104  CB        38.4400    3.1700   14.9340 C.3   177  MET177      0.0401
    105  CG        39.1140    4.2040   15.8190 C.3   177  MET177      0.0596
    106  SD        38.2540    5.8080   15.6090 S.3   177  MET177     -0.1393
    107  CE        39.1450    6.8290   16.7730 C.3   177  MET177      0.0692
    108  N         40.6980    2.8680   13.0910 N.am  178  GLU178     -0.1979
    109  CA        41.9830    3.1740   12.4640 C.3   178  GLU178      0.1602
    110  C         42.9100    3.8990   13.4460 C.2   178  GLU178      0.2287
    111  O         42.5450    4.9250   14.0230 O.2   178  GLU178     -0.2864
    112  CB        41.7430    4.0070   11.2040 C.3   178  GLU178      0.0415
    113  CG        42.8680    3.9380   10.2070 C.3   178  GLU178      0.1163
    114  CD        42.3650    3.8200    8.7780 C.2   178  GLU178      0.3649
    115  OE1       41.6650    2.8300    8.4750 O.co2 178  GLU178     -0.2457
    116  OE2       42.6690    4.7090    7.9580 O.co2 178  GLU178     -0.2457
    117  N         45.4880    5.8530   13.2100 N.3   180  THR180     -0.1203
    118  CA        45.8450    7.2460   12.9770 C.3   180  THR180      0.1994
    119  C         44.8370    8.1670   13.6590 C.2   180  THR180      0.2618
    120  O         45.2100    9.2000   14.2170 O.2   180  THR180     -0.2717
    121  CB        45.9090    7.5450   11.4690 C.3   180  THR180      0.1784
    122  OG1       44.7150    7.0690   10.8380 O.3   180  THR180     -0.2211
    123  CG2       47.1150    6.8560   10.8470 C.3   180  THR180      0.0376
    124  N         43.5600    7.7910   13.6280 N.am  181  SER181     -0.1951
    125  CA        42.5300    8.5960   14.2820 C.3   181  SER181      0.1924
    126  C         42.7030    8.5000   15.7960 C.2   181  SER181      0.2314
    127  O         42.5120    9.4770   16.5160 O.2   181  SER181     -0.2863
    128  CB        41.1280    8.1080   13.8960 C.3   181  SER181      0.2116
    129  OG        40.9130    8.2310   12.4980 O.3   181  SER181     -0.2180
    130  N         48.7970    4.0690    3.7730 N.3   204  TYR204     -0.1241
    131  CA        48.1280    5.0470    2.9230 C.3   204  TYR204      0.1605
    132  C         49.0710    5.3360    1.7680 C.2   204  TYR204      0.2264
    133  O         50.2800    5.4700    1.9710 O.2   204  TYR204     -0.2867
    134  CB        47.8850    6.3810    3.6440 C.3   204  TYR204      0.0534
    135  CG        47.0040    6.3330    4.8640 C.ar  204  TYR204     -0.0201
    136  CD1       45.9510    5.4220    4.9610 C.ar  204  TYR204     -0.0009
    137  CD2       47.1910    7.2430    5.9070 C.ar  204  TYR204     -0.0009
    138  CE1       45.1070    5.4190    6.0690 C.ar  204  TYR204      0.0417
    139  CE2       46.3550    7.2510    7.0150 C.ar  204  TYR204      0.0417
    140  CZ        45.3150    6.3360    7.0930 C.ar  204  TYR204      0.1957
    141  OH        44.4980    6.3350    8.1940 O.3   204  TYR204     -0.2866
@<TRIPOS>BOND
     1    68    67    2
     2    67    66    1
     3    66    65    1
     4    66    69    1
     5    69    70    1
     6    70    71    1
     7    57    55    1
     8    34    33    2
     9    71    72    1
    10    33    32    1
    11    55    56    1
    12    55    54    1
    13    72    73    2
    14    54    51    1
    15    32    31    1
    16    32    35    1
    17    73    75    1
    18    73    74    1
    19    61    60    2
    20    35    36    1
    21    53    52    2
    22    60    59    1
    23    51    52    1
    24    51    50    1
    25    52    58   am
    26   132   133    2
    27   132   131    1
    28    50    45   am
    29    37    36   ar
    30    37    39   ar
    31    36    38   ar
    32    58    59    1
    33    59    62    1
    34    39    41   ar
    35   131   134    1
    36   131   130    1
    37    38    40   ar
    38    43    44    1
    39    43    49    1
    40    45    46    2
    41    45    44    1
    42    62    64    1
    43    62    63    1
    44   134   135    1
    45    44    47    1
    46    49    48    1
    47    41    40   ar
    48    41    42    1
    49   135   136   ar
    50   135   137   ar
    51    48    47    1
    52   136   138   ar
    53    22    21    2
    54    21    20    1
    55     1     2    1
    56    23    20    1
    57    23    24    1
    58   137   139   ar
    59   138   140   ar
    60     5     2    1
    61     5     6    1
    62    20    19    1
    63     8     7   ar
    64    25    24   ar
    65    25    27   ar
    66    91    92    1
    67    91    88    1
    68    24    26   ar
    69     2     3    1
    70   139   140   ar
    71   140   141    1
    72     6     7    1
    73     4     3    2
    74    27    29   ar
    75    88    87    1
    76    88    89    1
    77     7     9   ar
    78    26    28   ar
    79    87    85   am
    80     3    10   am
    81   116   114   ar
    82    85    84    1
    83    85    86    2
    84    29    28   ar
    85    29    30    1
    86    84    83    1
    87   115   114   ar
    88   114   113    1
    89    89    90    2
    90    89    93   am
    91    10    11    1
    92    93    94    1
    93    11    12    1
    94    11    14    1
    95   113   112    1
    96    12    13    2
    97   122   121    1
    98   123   121    1
    99    94    95    1
   100    94    97    1
   101   112   109    1
   102    14    15    1
   103   121   118    1
   104    81    80    1
   105    95    96    2
   106    98    97    1
   107    79    78    2
   108    15    16    1
   109    97    99    1
   110    80    82    1
   111    80    77    1
   112   109   108    1
   113   109   110    1
   114   129   128    1
   115    78    77    1
   116   118   117    1
   117   118   119    1
   118   108   102   am
   119    17    16   ar
   120    16    18   ar
   121    77    76    1
   122   110   111    2
   123   124   119   am
   124   124   125    1
   125   119   120    2
   126   128   125    1
   127   102   101    1
   128   102   103    2
   129   125   126    1
   130   101   104    1
   131   101   100    1
   132   104   105    1
   133   106   105    1
   134   106   107    1
   135   126   127    2
