@<TRIPOS>MOLECULE
tmp/1vtkA00.pdb
 148 142 0 0 0
SMALL
GASTEIGER

@<TRIPOS>ATOM
      1  N         34.7810   20.3040   33.7530 N.3    13  HIS13      -0.1226
      2  CA        35.8720   21.1350   33.2460 C.3    13  HIS13       0.1752
      3  C         35.4040   22.4890   32.7210 C.2    13  HIS13       0.2597
      4  O         34.2310   22.6600   32.3530 O.2    13  HIS13      -0.2718
      5  CB        36.6310   20.3970   32.1420 C.3    13  HIS13       0.0759
      6  CG        35.7480   19.8540   31.0630 C.ar   13  HIS13       0.0818
      7  ND1       35.3300   18.5430   31.0340 N.ar   13  HIS13      -0.2268
      8  CD2       35.1700   20.4560   29.9970 C.ar   13  HIS13       0.1154
      9  CE1       34.5270   18.3570   30.0000 C.ar   13  HIS13       0.1986
     10  NE2       34.4140   19.5040   29.3530 N.ar   13  HIS13      -0.2212
     11  N         36.3350   23.4380   32.6680 N.am   14  GLY14      -0.1942
     12  CA        36.0490   24.7770   32.1830 C.3    14  GLY14       0.2014
     13  C         35.0350   25.5230   33.0180 C.2    14  GLY14       0.2639
     14  O         34.0860   26.1010   32.4870 O.2    14  GLY14      -0.2714
     15  N         35.2260   25.5180   34.3280 N.am   15  MET15      -0.1963
     16  CA        34.2980   26.1910   35.2250 C.3    15  MET15       0.1736
     17  C         34.9970   27.2660   36.0520 C.2    15  MET15       0.2617
     18  O         34.3440   28.1180   36.6510 O.2    15  MET15      -0.2715
     19  CB        33.6160   25.1590   36.1250 C.3    15  MET15       0.0427
     20  CG        32.2910   25.6030   36.7210 C.3    15  MET15       0.0599
     21  SD        31.3570   24.2230   37.4450 S.3    15  MET15      -0.1393
     22  CE        32.5780   23.5660   38.5990 C.3    15  MET15       0.0692
     23  N         36.3260   27.2480   36.0540 N.am   16  GLY16      -0.1940
     24  CA        37.0770   28.2350   36.8050 C.3    16  GLY16       0.2014
     25  C         37.7440   27.6330   38.0190 C.2    16  GLY16       0.2639
     26  O         38.2410   28.3420   38.8950 O.2    16  GLY16      -0.2714
     27  N         37.7800   26.3110   38.0550 N.am   17  LYS17      -0.1963
     28  CA        38.3720   25.5930   39.1610 C.3    17  LYS17       0.1728
     29  C         39.8610   25.8710   39.2720 C.2    17  LYS17       0.2617
     30  O         40.3570   26.1650   40.3530 O.2    17  LYS17      -0.2715
     31  CB        38.0810   24.1090   38.9980 C.3    17  LYS17       0.0311
     32  CG        39.0930   23.1690   39.5890 C.3    17  LYS17       0.0038
     33  CD        38.7070   21.7230   39.2960 C.3    17  LYS17       0.0206
     34  CE        38.4230   21.4760   37.8140 C.3    17  LYS17       0.1093
     35  NZ        37.0370   21.8410   37.4030 N.3    17  LYS17      -0.1314
     36  N         40.5760   25.8150   38.1570 N.am   18  THR18      -0.1937
     37  CA        42.0080   26.0780   38.1840 C.3    18  THR18       0.2028
     38  C         42.2680   27.5240   38.5960 C.2    18  THR18       0.2643
     39  O         43.1330   27.7900   39.4320 O.2    18  THR18      -0.2714
     40  CB        42.6610   25.7760   36.8170 C.3    18  THR18       0.1808
     41  OG1       42.5050   24.3850   36.5260 O.3    18  THR18      -0.2208
     42  CG2       44.1510   26.0910   36.8420 C.3    18  THR18       0.0379
     43  N         41.4950   28.4480   38.0360 N.am   19  THR19      -0.1936
     44  CA        41.6400   29.8650   38.3470 C.3    19  THR19       0.2028
     45  C         41.4130   30.1730   39.8250 C.2    19  THR19       0.2642
     46  O         42.2590   30.7910   40.4750 O.2    19  THR19      -0.2714
     47  CB        40.6750   30.7190   37.5020 C.3    19  THR19       0.1808
     48  OG1       41.0520   30.6350   36.1230 O.3    19  THR19      -0.2208
     49  CG2       40.7080   32.1780   37.9440 C.3    19  THR19       0.0379
     50  N         40.2940   29.7060   40.3640 N.am   20  THR20      -0.1950
     51  CA        39.9620   29.9640   41.7570 C.3    20  THR20       0.1897
     52  C         40.9220   29.3550   42.7880 C.2    20  THR20       0.2313
     53  O         41.1960   29.9790   43.8140 O.2    20  THR20      -0.2863
     54  CB        38.5010   29.5830   42.0520 C.3    20  THR20       0.1794
     55  OG1       38.3020   28.1870   41.8030 O.3    20  THR20      -0.2208
     56  CG2       37.5730   30.3670   41.1340 C.3    20  THR20       0.0378
     57  N         41.0390   18.2070   41.7280 N.3   115  ARG115     -0.1245
     58  CA        40.2950   16.9820   41.4290 C.3   115  ARG115      0.1563
     59  C         40.5950   15.8090   42.3670 C.2   115  ARG115      0.2260
     60  O         41.6640   15.7190   42.9790 O.2   115  ARG115     -0.2867
     61  CB        40.4550   16.5580   39.9600 C.3   115  ARG115      0.0307
     62  CG        40.1100   17.6510   38.9500 C.3   115  ARG115      0.0489
     63  CD        40.0120   17.1040   37.5400 C.3   115  ARG115      0.2205
     64  NE        38.6300   16.8460   37.1810 N.pl3 115  ARG115     -0.0865
     65  CZ        37.8550   17.7120   36.5450 C.cat 115  ARG115      0.5346
     66  NH1       38.3260   18.8920   36.1900 N.pl3 115  ARG115      0.1354
     67  NH2       36.6020   17.4020   36.2740 N.pl3 115  ARG115      0.1354
     68  N         26.5220   30.4610   31.2760 N.3   164  ARG164     -0.1245
     69  CA        27.7460   31.0790   31.7630 C.3   164  ARG164      0.1563
     70  C         28.9000   30.0890   31.7430 C.2   164  ARG164      0.2260
     71  O         30.0680   30.4770   31.6860 O.2   164  ARG164     -0.2867
     72  CB        27.5550   31.6470   33.1660 C.3   164  ARG164      0.0307
     73  CG        26.8100   32.9730   33.1910 C.3   164  ARG164      0.0489
     74  CD        27.3500   33.8880   34.2860 C.3   164  ARG164      0.2205
     75  NE        28.7860   34.1460   34.1320 N.pl3 164  ARG164     -0.0865
     76  CZ        29.5410   34.8000   35.0160 C.cat 164  ARG164      0.5346
     77  NH1       29.0130   35.2790   36.1360 N.pl3 164  ARG164      0.1354
     78  NH2       30.8370   34.9690   34.7820 N.pl3 164  ARG164      0.1354
     79  N         32.6590   30.3320   29.4420 N.3   168  ARG168     -0.1245
     80  CA        33.9710   30.1260   30.0370 C.3   168  ARG168      0.1563
     81  C         34.6980   29.0110   29.3070 C.2   168  ARG168      0.2260
     82  O         35.8770   29.1370   28.9810 O.2   168  ARG168     -0.2867
     83  CB        33.8330   29.7880   31.5180 C.3   168  ARG168      0.0307
     84  CG        33.1700   30.8790   32.3190 C.3   168  ARG168      0.0489
     85  CD        33.0940   30.4900   33.7740 C.3   168  ARG168      0.2205
     86  NE        32.5050   31.5510   34.5850 N.pl3 168  ARG168     -0.0865
     87  CZ        32.5650   31.6020   35.9120 C.cat 168  ARG168      0.5346
     88  NH1       33.1870   30.6500   36.5920 N.pl3 168  ARG168      0.1354
     89  NH2       32.0200   32.6220   36.5560 N.pl3 168  ARG168      0.1354
     90  N         36.2790   30.0620   26.1240 N.3   171  LYS171     -0.1231
     91  CA        37.5140   30.8330   26.2270 C.3   171  LYS171      0.1693
     92  C         38.7000   29.8970   26.4200 C.2   171  LYS171      0.2591
     93  O         39.6630   29.9200   25.6520 O.2   171  LYS171     -0.2718
     94  CB        37.4420   31.8310   27.3940 C.3   171  LYS171      0.0285
     95  CG        36.1330   32.6120   27.4810 C.3   171  LYS171      0.0035
     96  CD        35.7140   33.1570   26.1170 C.3   171  LYS171      0.0206
     97  CE        34.2640   33.6330   26.1200 C.3   171  LYS171      0.1093
     98  NZ        33.7570   33.9140   24.7420 N.3   171  LYS171     -0.1314
     99  N         38.6160   29.0650   27.4500 N.am  172  ARG172     -0.1980
    100  CA        39.6760   28.1180   27.7610 C.3   172  ARG172      0.1597
    101  C         39.5880   26.8690   26.8930 C.2   172  ARG172      0.2287
    102  O         38.7360   26.0030   27.1170 O.2   172  ARG172     -0.2864
    103  CB        39.6110   27.7090   29.2350 C.3   172  ARG172      0.0334
    104  CG        40.6730   26.6940   29.6520 C.3   172  ARG172      0.0492
    105  CD        40.1950   25.8220   30.8120 C.3   172  ARG172      0.2205
    106  NE        39.0160   25.0240   30.4690 N.pl3 172  ARG172     -0.0865
    107  CZ        39.0390   23.9170   29.7310 C.cat 172  ARG172      0.5346
    108  NH1       40.1800   23.4530   29.2410 N.pl3 172  ARG172      0.1354
    109  NH2       37.9140   23.2660   29.4820 N.pl3 172  ARG172      0.1354
    110  N         41.9360   23.8940   25.9470 N.3   174  ARG174     -0.1245
    111  CA        43.1700   23.1580   26.2000 C.3   174  ARG174      0.1563
    112  C         43.7790   22.4960   24.9620 C.2   174  ARG174      0.2260
    113  O         43.1290   22.3830   23.9170 O.2   174  ARG174     -0.2867
    114  CB        42.9330   22.1110   27.2890 C.3   174  ARG174      0.0307
    115  CG        43.2460   22.6050   28.6780 C.3   174  ARG174      0.0489
    116  CD        43.0210   21.5130   29.6990 C.3   174  ARG174      0.2205
    117  NE        43.6310   21.8380   30.9860 N.pl3 174  ARG174     -0.0865
    118  CZ        43.1830   22.7690   31.8250 C.cat 174  ARG174      0.5346
    119  NH1       42.1080   23.4870   31.5280 N.pl3 174  ARG174      0.1354
    120  NH2       43.8140   22.9780   32.9750 N.pl3 174  ARG174      0.1354
    121  N         30.3540   34.0740   39.8530 N.3   268  GLN268     -0.1231
    122  CA        30.7790   35.3500   40.4140 C.3   268  GLN268      0.1698
    123  C         32.2310   35.6330   40.0570 C.2   268  GLN268      0.2593
    124  O         32.8750   34.8350   39.3800 O.2   268  GLN268     -0.2718
    125  CB        30.6060   35.3630   41.9400 C.3   268  GLN268      0.0381
    126  CG        31.4920   34.3870   42.7060 C.3   268  GLN268      0.0905
    127  CD        31.3260   34.5070   44.2130 C.2   268  GLN268      0.2608
    128  OE1       31.6650   35.5330   44.8080 O.2   268  GLN268     -0.2717
    129  NE2       30.8070   33.4560   44.8380 N.am  268  GLN268     -0.0878
    130  N         32.7330   36.7750   40.5230 N.am  269  SER269     -0.1939
    131  CA        34.1100   37.2020   40.2710 C.3   269  SER269      0.2040
    132  C         35.1190   36.1820   40.7850 C.2   269  SER269      0.2485
    133  O         34.9260   35.5960   41.8510 O.2   269  SER269     -0.2729
    134  CB        34.3690   38.5480   40.9580 C.3   269  SER269      0.2129
    135  OG        35.7500   38.8820   40.9510 O.3   269  SER269     -0.2179
    136  N         36.2370   35.9990   40.0620 N.am  270  PRO270     -0.2726
    137  CA        37.2730   35.0450   40.4680 C.3   270  PRO270      0.1402
    138  C         37.7200   35.2840   41.9030 C.2   270  PRO270      0.2269
    139  O         37.9000   34.3380   42.6690 O.2   270  PRO270     -0.2865
    140  CB        38.3940   35.3020   39.4590 C.3   270  PRO270      0.0296
    141  CG        38.1290   36.7040   38.9790 C.3   270  PRO270      0.0237
    142  CD        36.6410   36.7090   38.8400 C.3   270  PRO270      0.0939
    143  N         35.0190   34.0580   44.1600 N.3   273  CYS273     -0.1235
    144  CA        35.0560   32.5980   44.2520 C.3   273  CYS273      0.1677
    145  C         36.1310   32.1730   45.2390 C.2   273  CYS273      0.2270
    146  O         35.9270   31.2580   46.0390 O.2   273  CYS273     -0.2867
    147  CB        35.3840   31.9760   42.8960 C.3   273  CYS273      0.0956
    148  SG        34.0920   32.0290   41.6600 S.3   273  CYS273     -0.0801
@<TRIPOS>BOND
     1   113   112    2
     2    98    97    1
     3   112   111    1
     4    93    92    2
     5   110   111    1
     6    96    97    1
     7    96    95    1
     8    90    91    1
     9   111   114    1
    10    91    92    1
    11    91    94    1
    12    92    99   am
    13   101   102    2
    14   101   100    1
    15   114   115    1
    16    94    95    1
    17    99   100    1
    18   100   103    1
    19   115   116    1
    20    82    81    2
    21   103   104    1
    22   108   107    1
    23    81    80    1
    24    10     8   ar
    25    10     9   ar
    26    79    80    1
    27   109   107    1
    28   104   105    1
    29   116   117    1
    30   107   106    2
    31     8     6   ar
    32     9     7   ar
    33    80    83    1
    34   106   105    1
    35   117   118    2
    36     7     6   ar
    37     6     5    1
    38    68    69    1
    39    83    84    1
    40   119   118    1
    41    71    70    2
    42    70    69    1
    43    69    72    1
    44   118   120    1
    45     5     2    1
    46    12    11    1
    47    12    13    1
    48    84    85    1
    49     4     3    2
    50    14    13    2
    51    11     3   am
    52     3     2    1
    53    13    15   am
    54    72    73    1
    55    73    74    1
    56     2     1    1
    57    85    86    1
    58    75    74    1
    59    75    76    2
    60    15    16    1
    61    86    87    2
    62    78    76    1
    63    76    77    1
    64    16    17    1
    65    16    19    1
    66    87    89    1
    67    87    88    1
    68    17    23   am
    69    17    18    2
    70    23    24    1
    71    48    47    1
    72    19    20    1
    73    66    65    1
    74    67    65    1
    75    41    40    1
    76    65    64    2
    77    20    21    1
    78    24    25    1
    79    40    42    1
    80    40    37    1
    81    64    63    1
    82    35    34    1
    83    21    22    1
    84    47    49    1
    85    47    44    1
    86    63    62    1
    87    34    33    1
    88    25    27   am
    89    25    26    2
    90    43    44    1
    91    43    38   am
    92    27    28    1
    93    36    37    1
    94    36    29   am
    95    37    38    1
    96    44    45    1
    97    38    39    2
    98   142   141    1
    99   142   136    1
   100    62    61    1
   101   141   140    1
   102    31    28    1
   103    31    32    1
   104    28    29    1
   105    29    30    2
   106    33    32    1
   107   124   123    2
   108   140   137    1
   109    45    50   am
   110    45    46    2
   111   121   122    1
   112    61    58    1
   113   123   122    1
   114   123   130   am
   115   136   137    1
   116   136   132   am
   117   131   130    1
   118   131   132    1
   119   131   134    1
   120    50    51    1
   121   122   125    1
   122   137   138    1
   123   132   133    2
   124   135   134    1
   125    56    54    1
   126    58    57    1
   127    58    59    1
   128   148   147    1
   129    51    54    1
   130    51    52    1
   131    55    54    1
   132   138   139    2
   133   125   126    1
   134    59    60    2
   135   126   127    1
   136    52    53    2
   137   147   144    1
   138   143   144    1
   139   127   128    2
   140   127   129   am
   141   144   145    1
   142   145   146    2
