@<TRIPOS>MOLECULE
tmp/1vtkA01.pdb
 185 175 0 0 0
SMALL
GASTEIGER

@<TRIPOS>ATOM
      1  N         34.7810   20.3040   33.7530 N.3    13  HIS13      -0.1226
      2  CA        35.8720   21.1350   33.2460 C.3    13  HIS13       0.1752
      3  C         35.4040   22.4890   32.7210 C.2    13  HIS13       0.2596
      4  O         34.2310   22.6600   32.3530 O.2    13  HIS13      -0.2718
      5  CB        36.6310   20.3970   32.1420 C.3    13  HIS13       0.0759
      6  CG        35.7480   19.8540   31.0630 C.ar   13  HIS13       0.0818
      7  ND1       35.3300   18.5430   31.0340 N.ar   13  HIS13      -0.2268
      8  CD2       35.1700   20.4560   29.9970 C.ar   13  HIS13       0.1154
      9  CE1       34.5270   18.3570   30.0000 C.ar   13  HIS13       0.1986
     10  NE2       34.4140   19.5040   29.3530 N.ar   13  HIS13      -0.2212
     11  N         36.3350   23.4380   32.6680 N.am   14  GLY14      -0.1957
     12  CA        36.0490   24.7770   32.1830 C.3    14  GLY14       0.1869
     13  C         35.0350   25.5230   33.0180 C.2    14  GLY14       0.2309
     14  O         34.0860   26.1010   32.4870 O.2    14  GLY14      -0.2863
     15  N         37.7800   26.3110   38.0550 N.3    17  LYS17      -0.1231
     16  CA        38.3720   25.5930   39.1610 C.3    17  LYS17       0.1693
     17  C         39.8610   25.8710   39.2720 C.2    17  LYS17       0.2592
     18  O         40.3570   26.1650   40.3530 O.2    17  LYS17      -0.2718
     19  CB        38.0810   24.1090   38.9980 C.3    17  LYS17       0.0285
     20  CG        39.0930   23.1690   39.5890 C.3    17  LYS17       0.0035
     21  CD        38.7070   21.7230   39.2960 C.3    17  LYS17       0.0206
     22  CE        38.4230   21.4760   37.8140 C.3    17  LYS17       0.1093
     23  NZ        37.0370   21.8410   37.4030 N.3    17  LYS17      -0.1314
     24  N         40.5760   25.8150   38.1570 N.am   18  THR18      -0.1953
     25  CA        42.0080   26.0780   38.1840 C.3    18  THR18       0.1897
     26  C         42.2680   27.5240   38.5960 C.2    18  THR18       0.2313
     27  O         43.1330   27.7900   39.4320 O.2    18  THR18      -0.2863
     28  CB        42.6610   25.7760   36.8170 C.3    18  THR18       0.1794
     29  OG1       42.5050   24.3850   36.5260 O.3    18  THR18      -0.2208
     30  CG2       44.1510   26.0910   36.8420 C.3    18  THR18       0.0378
     31  N         46.7020   19.6220   38.5490 N.3    38  GLU38      -0.1245
     32  CA        46.3840   18.5000   37.6790 C.3    38  GLU38       0.1567
     33  C         47.6730   17.9790   37.0760 C.2    38  GLU38       0.2260
     34  O         48.5360   18.7570   36.6780 O.2    38  GLU38      -0.2867
     35  CB        45.4400   18.9270   36.5660 C.3    38  GLU38       0.0388
     36  CG        43.9910   19.0290   36.9920 C.3    38  GLU38       0.1160
     37  CD        43.0610   19.1910   35.8150 C.2    38  GLU38       0.3649
     38  OE1       43.5170   19.6480   34.7420 O.co2  38  GLU38      -0.2457
     39  OE2       41.8710   18.8590   35.9610 O.co2  38  GLU38      -0.2457
     40  N         49.5980   13.2000   31.7430 N.3    43  TRP43      -0.1241
     41  CA        48.5960   13.0000   30.7160 C.3    43  TRP43       0.1605
     42  C         49.1260   13.1920   29.3010 C.2    43  TRP43       0.2264
     43  O         48.8210   12.4090   28.4030 O.2    43  TRP43      -0.2867
     44  CB        47.4520   13.9830   30.9440 C.3    43  TRP43       0.0550
     45  CG        46.7070   13.7840   32.2080 C.ar   43  TRP43       0.0003
     46  CD1       46.7910   12.7140   33.0570 C.ar   43  TRP43       0.0946
     47  CD2       45.7140   14.6600   32.7630 C.ar   43  TRP43       0.0152
     48  NE1       45.9060   12.8680   34.0970 N.ar   43  TRP43      -0.2442
     49  CE2       45.2290   14.0500   33.9400 C.ar   43  TRP43       0.0810
     50  CE3       45.1830   15.8970   32.3740 C.ar   43  TRP43       0.0012
     51  CZ2       44.2330   14.6360   34.7340 C.ar   43  TRP43       0.0191
     52  CZ3       44.1920   16.4800   33.1700 C.ar   43  TRP43       0.0001
     53  CH2       43.7290   15.8450   34.3340 C.ar   43  TRP43       0.0015
     54  N         44.5630   13.7300   26.3100 N.3    52  ILE52      -0.1245
     55  CA        43.3550   14.5440   26.1920 C.3    52  ILE52       0.1561
     56  C         42.8890   14.6310   24.7380 C.2    52  ILE52       0.2260
     57  O         41.6890   14.5420   24.4540 O.2    52  ILE52      -0.2867
     58  CB        43.5570   15.9690   26.7500 C.3    52  ILE52       0.0252
     59  CG1       43.8430   15.9090   28.2490 C.3    52  ILE52       0.0019
     60  CG2       42.3190   16.8210   26.4810 C.3    52  ILE52       0.0019
     61  CD1       43.8300   17.2680   28.9210 C.3    52  ILE52       0.0001
     62  N         41.3040   11.4370   23.5760 N.3    55  ILE55      -0.1231
     63  CA        39.9160   11.3550   24.0140 C.3    55  ILE55       0.1692
     64  C         38.9660   12.1230   23.0910 C.2    55  ILE55       0.2592
     65  O         38.0150   11.5550   22.5510 O.2    55  ILE55      -0.2718
     66  CB        39.7730   11.8670   25.4650 C.3    55  ILE55       0.0266
     67  CG1       40.3520   10.8380   26.4380 C.3    55  ILE55       0.0019
     68  CG2       38.3200   12.1540   25.8000 C.3    55  ILE55       0.0020
     69  CD1       40.3390   11.2950   27.8710 C.3    55  ILE55       0.0001
     70  N         39.2180   13.4140   22.9110 N.am   56  TYR56      -0.1976
     71  CA        38.3750   14.2340   22.0510 C.3    56  TYR56       0.1639
     72  C         38.3730   13.7910   20.5910 C.2    56  TYR56       0.2290
     73  O         37.3320   13.8300   19.9370 O.2    56  TYR56      -0.2864
     74  CB        38.7540   15.7040   22.1760 C.3    56  TYR56       0.0560
     75  CG        38.3000   16.2770   23.4860 C.ar   56  TYR56      -0.0198
     76  CD1       37.0030   16.7580   23.6390 C.ar   56  TYR56      -0.0009
     77  CD2       39.1300   16.2570   24.6020 C.ar   56  TYR56      -0.0009
     78  CE1       36.5380   17.1920   24.8720 C.ar   56  TYR56       0.0417
     79  CE2       38.6740   16.6950   25.8400 C.ar   56  TYR56       0.0417
     80  CZ        37.3780   17.1540   25.9640 C.ar   56  TYR56       0.1957
     81  OH        36.9090   17.5500   27.1860 O.3    56  TYR56      -0.2866
     82  N         41.2180    6.6930   30.1070 N.3    80  GLN80      -0.1245
     83  CA        40.7860    7.0090   31.4580 C.3    80  GLN80       0.1566
     84  C         41.6780    6.3830   32.5270 C.2    80  GLN80       0.2260
     85  O         41.8420    6.9360   33.6150 O.2    80  GLN80      -0.2867
     86  CB        39.3280    6.6020   31.6480 C.3    80  GLN80       0.0367
     87  CG        38.3530    7.5860   31.0250 C.3    80  GLN80       0.0905
     88  CD        38.5750    9.0020   31.5320 C.2    80  GLN80       0.2608
     89  OE1       38.4680    9.9740   30.7810 O.2    80  GLN80      -0.2717
     90  NE2       38.8780    9.1260   32.8160 N.am   80  GLN80      -0.0878
     91  N         44.4320    8.7930   32.7330 N.3    83  MET83      -0.1245
     92  CA        44.0100   10.0300   33.3820 C.3    83  MET83       0.1570
     93  C         44.0600    9.9400   34.9000 C.2    83  MET83       0.2261
     94  O         44.5710   10.8390   35.5700 O.2    83  MET83      -0.2867
     95  CB        42.5810   10.4010   32.9650 C.3    83  MET83       0.0387
     96  CG        42.3860   10.7280   31.4840 C.3    83  MET83       0.0595
     97  SD        43.4030   12.1060   30.9120 S.3    83  MET83      -0.1393
     98  CE        42.4360   13.4690   31.4640 C.3    83  MET83       0.0692
     99  N         46.3080   10.1540   40.2500 N.3    87  TYR87      -0.1241
    100  CA        45.3780   10.4250   41.3420 C.3    87  TYR87       0.1605
    101  C         45.3300    9.2180   42.2820 C.2    87  TYR87       0.2264
    102  O         45.3690    9.3540   43.5000 O.2    87  TYR87      -0.2867
    103  CB        43.9770   10.6940   40.7910 C.3    87  TYR87       0.0534
    104  CG        43.8280   12.0370   40.1220 C.ar   87  TYR87      -0.0201
    105  CD1       43.9740   13.2100   40.8460 C.ar   87  TYR87      -0.0009
    106  CD2       43.5510   12.1360   38.7650 C.ar   87  TYR87      -0.0009
    107  CE1       43.8550   14.4460   40.2420 C.ar   87  TYR87       0.0417
    108  CE2       43.4290   13.3710   38.1490 C.ar   87  TYR87       0.0417
    109  CZ        43.5860   14.5230   38.8940 C.ar   87  TYR87       0.1957
    110  OH        43.5000   15.7590   38.2900 O.3    87  TYR87      -0.2866
    111  N         41.0390   18.2070   41.7280 N.3   115  ARG115     -0.1245
    112  CA        40.2950   16.9820   41.4290 C.3   115  ARG115      0.1563
    113  C         40.5950   15.8090   42.3670 C.2   115  ARG115      0.2260
    114  O         41.6640   15.7190   42.9790 O.2   115  ARG115     -0.2867
    115  CB        40.4550   16.5580   39.9600 C.3   115  ARG115      0.0307
    116  CG        40.1100   17.6510   38.9500 C.3   115  ARG115      0.0489
    117  CD        40.0120   17.1040   37.5400 C.3   115  ARG115      0.2205
    118  NE        38.6300   16.8460   37.1810 N.pl3 115  ARG115     -0.0865
    119  CZ        37.8550   17.7120   36.5450 C.cat 115  ARG115      0.5346
    120  NH1       38.3260   18.8920   36.1900 N.pl3 115  ARG115      0.1354
    121  NH2       36.6020   17.4020   36.2740 N.pl3 115  ARG115      0.1354
    122  N         37.0040   11.5720   39.7710 N.3   119  ALA119     -0.1231
    123  CA        36.7690   12.2800   38.5070 C.3   119  ALA119      0.1694
    124  C         37.1570   11.3720   37.3370 C.2   119  ALA119      0.2591
    125  O         36.3770   11.1740   36.4090 O.2   119  ALA119     -0.2718
    126  CB        37.5690   13.5730   38.4560 C.3   119  ALA119      0.0304
    127  N         38.3360   10.7670   37.4320 N.am  120  ALA120     -0.1980
    128  CA        38.8500    9.8760   36.4030 C.3   120  ALA120      0.1597
    129  C         38.3260    8.4430   36.4930 C.2   120  ALA120      0.2287
    130  O         38.1790    7.7830   35.4660 O.2   120  ALA120     -0.2864
    131  CB        40.3670    9.8750   36.4290 C.3   120  ALA120      0.0319
    132  N         34.1340   10.8810   34.7330 N.3   124  TYR124     -0.1241
    133  CA        34.3340   10.9670   33.2980 C.3   124  TYR124      0.1605
    134  C         33.9180    9.6870   32.5900 C.2   124  TYR124      0.2264
    135  O         33.2500    9.7310   31.5570 O.2   124  TYR124     -0.2867
    136  CB        35.7320   11.4660   32.9530 C.3   124  TYR124      0.0534
    137  CG        35.7690   12.9710   33.0700 C.ar  124  TYR124     -0.0201
    138  CD1       36.0280   13.5860   34.2890 C.ar  124  TYR124     -0.0009
    139  CD2       35.4860   13.7790   31.9720 C.ar  124  TYR124     -0.0009
    140  CE1       36.0080   14.9700   34.4120 C.ar  124  TYR124      0.0417
    141  CE2       35.4600   15.1610   32.0840 C.ar  124  TYR124      0.0417
    142  CZ        35.7220   15.7520   33.3070 C.ar  124  TYR124      0.1957
    143  OH        35.7120   17.1240   33.4170 O.3   124  TYR124     -0.2866
    144  N         31.1880    9.5050   29.5670 N.3   128  ARG128     -0.1245
    145  CA        31.4870    8.9390   28.2550 C.3   128  ARG128      0.1563
    146  C         30.5100    7.8320   27.9580 C.2   128  ARG128      0.2260
    147  O         30.1400    7.6280   26.8120 O.2   128  ARG128     -0.2867
    148  CB        32.9220    8.4270   28.1720 C.3   128  ARG128      0.0307
    149  CG        33.9580    9.5400   28.0820 C.3   128  ARG128      0.0489
    150  CD        33.7050   10.4200   26.8600 C.3   128  ARG128      0.2205
    151  NE        34.5590   11.6070   26.8220 N.pl3 128  ARG128     -0.0865
    152  CZ        34.5360   12.5170   25.8500 C.cat 128  ARG128      0.5346
    153  NH1       33.7060   12.3810   24.8250 N.pl3 128  ARG128      0.1354
    154  NH2       35.3300   13.5750   25.9080 N.pl3 128  ARG128      0.1354
    155  N         38.6160   29.0650   27.4500 N.3   172  ARG172     -0.1245
    156  CA        39.6760   28.1180   27.7610 C.3   172  ARG172      0.1563
    157  C         39.5880   26.8690   26.8930 C.2   172  ARG172      0.2260
    158  O         38.7360   26.0030   27.1170 O.2   172  ARG172     -0.2867
    159  CB        39.6110   27.7090   29.2350 C.3   172  ARG172      0.0307
    160  CG        40.6730   26.6940   29.6520 C.3   172  ARG172      0.0489
    161  CD        40.1950   25.8220   30.8120 C.3   172  ARG172      0.2205
    162  NE        39.0160   25.0240   30.4690 N.pl3 172  ARG172     -0.0865
    163  CZ        39.0390   23.9170   29.7310 C.cat 172  ARG172      0.5346
    164  NH1       40.1800   23.4530   29.2410 N.pl3 172  ARG172      0.1354
    165  NH2       37.9140   23.2660   29.4820 N.pl3 172  ARG172      0.1354
    166  N         41.9360   23.8940   25.9470 N.3   174  ARG174     -0.1245
    167  CA        43.1700   23.1580   26.2000 C.3   174  ARG174      0.1563
    168  C         43.7790   22.4960   24.9620 C.2   174  ARG174      0.2260
    169  O         43.1290   22.3830   23.9170 O.2   174  ARG174     -0.2867
    170  CB        42.9330   22.1110   27.2890 C.3   174  ARG174      0.0307
    171  CG        43.2460   22.6050   28.6780 C.3   174  ARG174      0.0489
    172  CD        43.0210   21.5130   29.6990 C.3   174  ARG174      0.2205
    173  NE        43.6310   21.8380   30.9860 N.pl3 174  ARG174     -0.0865
    174  CZ        43.1830   22.7690   31.8250 C.cat 174  ARG174      0.5346
    175  NH1       42.1080   23.4870   31.5280 N.pl3 174  ARG174      0.1354
    176  NH2       43.8140   22.9780   32.9750 N.pl3 174  ARG174      0.1354
    177  N         41.9320   19.6800   22.7680 N.3   177  GLU177     -0.1245
    178  CA        40.5700   19.6350   23.2600 C.3   177  GLU177      0.1567
    179  C         39.6680   20.2540   22.1910 C.2   177  GLU177      0.2260
    180  O         40.0390   21.2410   21.5540 O.2   177  GLU177     -0.2867
    181  CB        40.5040   20.4320   24.5720 C.3   177  GLU177      0.0388
    182  CG        39.1350   20.5590   25.2120 C.3   177  GLU177      0.1160
    183  CD        39.1690   21.3910   26.4830 C.2   177  GLU177      0.3649
    184  OE1       39.8740   21.0000   27.4380 O.co2 177  GLU177     -0.2457
    185  OE2       38.4890   22.4380   26.5250 O.co2 177  GLU177     -0.2457
@<TRIPOS>BOND
     1    73    72    2
     2    72    71    1
     3   180   179    2
     4    71    74    1
     5    71    70    1
     6    74    75    1
     7   179   178    1
     8    65    64    2
     9   177   178    1
    10    70    64   am
    11    64    63    1
    12   178   181    1
    13    75    76   ar
    14    75    77   ar
    15    62    63    1
    16    76    78   ar
    17   169   168    2
    18    63    66    1
    19    57    56    2
    20   181   182    1
    21    77    79   ar
    22    56    55    1
    23   153   152    1
    24    78    80   ar
    25   168   167    1
    26   182   183    1
    27    66    68    1
    28    66    67    1
    29    79    80   ar
    30   152   154    1
    31   152   151    2
    32   166   167    1
    33    80    81    1
    34    55    54    1
    35    55    58    1
    36   167   170    1
    37    67    69    1
    38    60    58    1
    39   183   185   ar
    40   183   184   ar
    41    58    59    1
    42   147   146    2
    43   151   150    1
    44   150   149    1
    45   157   158    2
    46   157   156    1
    47   170   171    1
    48   155   156    1
    49   156   159    1
    50   146   145    1
    51   149   148    1
    52   148   145    1
    53    59    61    1
    54   145   144    1
    55    43    42    2
    56   171   172    1
    57   159   160    1
    58   164   163    1
    59    42    41    1
    60    10     8   ar
    61    10     9   ar
    62   165   163    1
    63   160   161    1
    64   172   173    1
    65   163   162    2
    66     8     6   ar
    67     9     7   ar
    68    82    83    1
    69   162   161    1
    70    41    44    1
    71    41    40    1
    72    89    88    2
    73    97    98    1
    74    97    96    1
    75    44    45    1
    76   173   174    2
    77    87    88    1
    78    87    86    1
    79     7     6   ar
    80     6     5    1
    81    83    86    1
    82    83    84    1
    83    96    95    1
    84   175   174    1
    85    88    90   am
    86   135   134    2
    87   174   176    1
    88   139   141   ar
    89   139   137   ar
    90   141   142   ar
    91     5     2    1
    92    12    11    1
    93    12    13    1
    94    45    47   ar
    95    45    46   ar
    96     4     3    2
    97    50    47   ar
    98    50    52   ar
    99    14    13    2
   100    84    85    2
   101   134   133    1
   102    11     3   am
   103     3     2    1
   104    91    92    1
   105    47    49   ar
   106   136   137    1
   107   136   133    1
   108    95    92    1
   109    46    48   ar
   110   137   138   ar
   111    52    53   ar
   112     2     1    1
   113   133   132    1
   114   142   143    1
   115   142   140   ar
   116    92    93    1
   117    49    48   ar
   118    49    51   ar
   119   138   140   ar
   120    53    51   ar
   121    38    37   ar
   122    93    94    2
   123   130   129    2
   124    37    39   ar
   125    37    36    1
   126   120   119    1
   127   121   119    1
   128   128   131    1
   129   128   129    1
   130   128   127    1
   131   125   124    2
   132    29    28    1
   133   119   118    2
   134    35    36    1
   135    35    32    1
   136    34    33    2
   137    28    30    1
   138    28    25    1
   139    33    32    1
   140   118   117    1
   141   124   127   am
   142   124   123    1
   143    23    22    1
   144   117   116    1
   145    32    31    1
   146    22    21    1
   147    15    16    1
   148   108   106   ar
   149   108   109   ar
   150    24    25    1
   151    24    17   am
   152    25    26    1
   153   110   109    1
   154   126   123    1
   155   123   122    1
   156    26    27    2
   157   106   104   ar
   158   109   107   ar
   159   116   115    1
   160    19    16    1
   161    19    20    1
   162    16    17    1
   163    17    18    2
   164    21    20    1
   165   115   112    1
   166   104   103    1
   167   104   105   ar
   168   107   105   ar
   169    99   100    1
   170   103   100    1
   171   100   101    1
   172   112   111    1
   173   112   113    1
   174   101   102    2
   175   113   114    2
