@<TRIPOS>MOLECULE
tmp/1vwcA00.pdb
 168 160 0 0 0
SMALL
GASTEIGER

@<TRIPOS>ATOM
      1  N         20.3260   -4.2380   -4.3140 N.3    11  ASN11      -0.1240
      2  CA        19.1540   -5.1110   -4.1810 C.3    11  ASN11       0.1653
      3  C         19.2600   -6.3940   -5.0050 C.2    11  ASN11       0.2266
      4  O         20.2410   -6.6210   -5.7210 O.2    11  ASN11      -0.2867
      5  CB        17.8300   -4.3670   -4.5680 C.3    11  ASN11       0.1155
      6  CG        17.6110   -3.9710   -6.0230 C.2    11  ASN11       0.2627
      7  OD1       18.2840   -4.4410   -6.9310 O.2    11  ASN11      -0.2716
      8  ND2       16.6850   -3.0840   -6.3500 N.am   11  ASN11      -0.0877
      9  N         17.8270   -7.3140   -7.6720 N.3    13  LEU13      -0.1245
     10  CA        17.6750   -7.2080   -9.1060 C.3    13  LEU13       0.1561
     11  C         18.8060   -6.5050   -9.8490 C.2    13  LEU13       0.2260
     12  O         18.6460   -6.2870  -11.0510 O.2    13  LEU13      -0.2867
     13  CB        16.3770   -6.4970   -9.4070 C.3    13  LEU13       0.0270
     14  CG        15.1670   -7.2140   -8.8620 C.3    13  LEU13       0.0019
     15  CD1       14.7320   -6.5800   -7.5390 C.3    13  LEU13       0.0001
     16  CD2       14.0410   -7.1100   -9.8710 C.3    13  LEU13       0.0001
     17  N         20.0460   -3.2420   -9.0190 N.3    15  SER15      -0.1217
     18  CA        20.1280   -1.8060   -8.7830 C.3    15  SER15       0.1889
     19  C         21.0720   -1.4630   -7.6260 C.2    15  SER15       0.2288
     20  O         21.2930   -2.2600   -6.7040 O.2    15  SER15      -0.2866
     21  CB        18.7280   -1.2660   -8.5120 C.3    15  SER15       0.2089
     22  OG        17.7490   -1.6300   -9.4850 O.3    15  SER15      -0.2183
     23  N         20.9290    6.9880   -7.2280 N.3    31  TYR31      -0.1241
     24  CA        20.3720    5.6590   -7.4270 C.3    31  TYR31       0.1605
     25  C         20.7660    5.3080   -8.8620 C.2    31  TYR31       0.2264
     26  O         20.6190    6.1320   -9.7690 O.2    31  TYR31      -0.2867
     27  CB        18.8310    5.6640   -7.3080 C.3    31  TYR31       0.0534
     28  CG        18.1270    4.3000   -7.4570 C.ar   31  TYR31      -0.0201
     29  CD1       17.8190    3.7940   -8.7290 C.ar   31  TYR31      -0.0009
     30  CD2       17.7650    3.5570   -6.3290 C.ar   31  TYR31      -0.0009
     31  CE1       17.1570    2.5780   -8.8760 C.ar   31  TYR31       0.0417
     32  CE2       17.0970    2.3300   -6.4730 C.ar   31  TYR31       0.0417
     33  CZ        16.7930    1.8440   -7.7510 C.ar   31  TYR31       0.1957
     34  OH        16.0740    0.6650   -7.9030 O.3    31  TYR31      -0.2866
     35  N         19.8730    2.5010  -11.5980 N.3    33  SER33      -0.1202
     36  CA        18.9970    1.3510  -11.7530 C.3    33  SER33       0.2020
     37  C         19.6640    0.1150  -12.3660 C.2    33  SER33       0.2618
     38  O         19.2020   -1.0160  -12.1360 O.2    33  SER33      -0.2717
     39  CB        17.7960    1.7760  -12.5600 C.3    33  SER33       0.2103
     40  OG        18.0850    2.6670  -13.6270 O.3    33  SER33      -0.2182
     41  N         20.8080    0.3430  -13.0490 N.am   34  ALA34      -0.1979
     42  CA        21.6780   -0.7250  -13.5280 C.3    34  ALA34       0.1597
     43  C         23.1160   -0.2850  -13.3150 C.2    34  ALA34       0.2287
     44  O         23.5310    0.7460  -13.8450 O.2    34  ALA34      -0.2864
     45  CB        21.4810   -0.9910  -15.0220 C.3    34  ALA34       0.0319
     46  N         25.5850    1.4040  -16.3000 N.3    37  ASN37      -0.1240
     47  CA        25.6510    2.6130  -17.0950 C.3    37  ASN37       0.1653
     48  C         25.4060    3.8830  -16.3530 C.2    37  ASN37       0.2266
     49  O         24.4410    4.0950  -15.6260 O.2    37  ASN37      -0.2867
     50  CB        24.6850    2.6190  -18.3140 C.3    37  ASN37       0.1155
     51  CG        23.3440    1.9240  -18.1710 C.2    37  ASN37       0.2627
     52  OD1       23.2180    0.8840  -17.5280 O.2    37  ASN37      -0.2716
     53  ND2       22.2730    2.4070  -18.7730 N.am   37  ASN37      -0.0877
     54  N         21.7800    5.3330  -16.2810 N.3    40  SER40      -0.1217
     55  CA        20.7320    4.8670  -15.4040 C.3    40  SER40       0.1889
     56  C         20.8970    5.5620  -14.0240 C.2    40  SER40       0.2288
     57  O         20.3140    5.0870  -13.0400 O.2    40  SER40      -0.2866
     58  CB        20.8470    3.3150  -15.3140 C.3    40  SER40       0.2089
     59  OG        22.1520    2.9000  -14.8850 O.3    40  SER40      -0.2183
     60  N         20.3460    8.6560  -11.2470 N.3    42  TYR42      -0.1241
     61  CA        19.3510    9.6780  -10.9140 C.3    42  TYR42       0.1605
     62  C         19.6790   10.1700   -9.4960 C.2    42  TYR42       0.2264
     63  O         20.1570    9.3700   -8.6540 O.2    42  TYR42      -0.2867
     64  CB        17.9390    9.0670  -10.9400 C.3    42  TYR42       0.0534
     65  CG        17.5220    8.4790  -12.2730 C.ar   42  TYR42      -0.0201
     66  CD1       17.9210    7.1860  -12.6330 C.ar   42  TYR42      -0.0009
     67  CD2       16.7620    9.2650  -13.1650 C.ar   42  TYR42      -0.0009
     68  CE1       17.5710    6.6920  -13.8920 C.ar   42  TYR42       0.0417
     69  CE2       16.3990    8.7790  -14.4240 C.ar   42  TYR42       0.0417
     70  CZ        16.8130    7.4880  -14.7720 C.ar   42  TYR42       0.1957
     71  OH        16.4470    7.0030  -16.0050 O.3    42  TYR42      -0.2866
     72  N         12.2010   10.2780  -11.8310 N.3    67  TRP67      -0.1241
     73  CA        12.8660    9.5630  -12.9240 C.3    67  TRP67       0.1605
     74  C         13.1500   10.4160  -14.1940 C.2    67  TRP67       0.2264
     75  O         12.7020   10.2090  -15.3300 O.2    67  TRP67      -0.2867
     76  CB        12.0380    8.2710  -13.2530 C.3    67  TRP67       0.0550
     77  CG        11.9480    7.3380  -12.0510 C.ar   67  TRP67       0.0003
     78  CD1       10.7580    7.1960  -11.3560 C.ar   67  TRP67       0.0946
     79  CD2       12.9520    6.5470  -11.5010 C.ar   67  TRP67       0.0152
     80  NE1       10.9830    6.3420  -10.3860 N.ar   67  TRP67      -0.2442
     81  CE2       12.2700    5.9300  -10.4270 C.ar   67  TRP67       0.0810
     82  CE3       14.3150    6.2520  -11.7190 C.ar   67  TRP67       0.0012
     83  CZ2       12.9270    5.0250   -9.5810 C.ar   67  TRP67       0.0191
     84  CZ3       14.9840    5.3480  -10.8790 C.ar   67  TRP67       0.0001
     85  CH2       14.2810    4.7430   -9.8150 C.ar   67  TRP67       0.0015
     86  N         16.6700   10.5300  -19.9970 N.3    72  ARG72      -0.1245
     87  CA        15.3590    9.9030  -19.8930 C.3    72  ARG72       0.1563
     88  C         14.5120   10.8340  -19.0670 C.2    72  ARG72       0.2260
     89  O         15.0120   11.4900  -18.1380 O.2    72  ARG72      -0.2867
     90  CB        15.5280    8.5640  -19.2040 C.3    72  ARG72       0.0307
     91  CG        14.3050    7.7000  -19.0040 C.3    72  ARG72       0.0489
     92  CD        13.8660    6.9270  -20.2510 C.3    72  ARG72       0.2205
     93  NE        12.7700    6.0300  -19.9020 N.pl3  72  ARG72      -0.0865
     94  CZ        11.4780    6.3480  -20.0710 C.cat  72  ARG72       0.5346
     95  NH1       11.0930    7.5120  -20.5900 N.pl3  72  ARG72       0.1354
     96  NH2       10.5490    5.4880  -19.6380 N.pl3  72  ARG72       0.1354
     97  N         10.9030    9.8750  -17.5400 N.3    74  ALA74      -0.1245
     98  CA         9.8000    8.9230  -17.4480 C.3    74  ALA74       0.1562
     99  C          8.4650    9.4570  -16.8870 C.2    74  ALA74       0.2260
    100  O          7.4790    8.7190  -16.9050 O.2    74  ALA74      -0.2867
    101  CB        10.2260    7.7020  -16.6180 C.3    74  ALA74       0.0290
    102  N          7.4030   10.3200  -13.8240 N.3    76  SER76      -0.1217
    103  CA         7.1380    9.5400  -12.6310 C.3    76  SER76       0.1889
    104  C          8.1770    9.7350  -11.5100 C.2    76  SER76       0.2288
    105  O          9.2880   10.2560  -11.7040 O.2    76  SER76      -0.2866
    106  CB         7.0060    8.0410  -13.0450 C.3    76  SER76       0.2089
    107  OG         8.1130    7.4110  -13.6220 O.3    76  SER76      -0.2183
    108  N          9.3960    7.6820   -7.5040 N.3    78  THR78      -0.1218
    109  CA         9.2410    6.6510   -6.4710 C.3    78  THR78       0.1862
    110  C          9.6850    7.1420   -5.0780 C.2    78  THR78       0.2287
    111  O         10.7040    7.8540   -4.9330 O.2    78  THR78      -0.2866
    112  CB        10.0630    5.3560   -6.8160 C.3    78  THR78       0.1770
    113  OG1        9.5640    4.9820   -8.0780 O.3    78  THR78      -0.2211
    114  CG2        9.9610    4.1800   -5.7960 C.3    78  THR78       0.0375
    115  N         10.6070    5.4350   -1.1770 N.3    80  TRP80      -0.1241
    116  CA        10.8350    4.1870   -0.4570 C.3    80  TRP80       0.1605
    117  C         10.7300    4.5450    1.0250 C.2    80  TRP80       0.2264
    118  O         11.3290    5.5350    1.4840 O.2    80  TRP80      -0.2867
    119  CB        12.2550    3.5860   -0.7190 C.3    80  TRP80       0.0550
    120  CG        12.5660    2.9940   -2.0840 C.ar   80  TRP80       0.0003
    121  CD1       12.6290    1.6200   -2.2390 C.ar   80  TRP80       0.0946
    122  CD2       12.8810    3.6970   -3.2490 C.ar   80  TRP80       0.0152
    123  NE1       12.9910    1.4360   -3.4890 N.ar   80  TRP80      -0.2442
    124  CE2       13.1560    2.6330   -4.1330 C.ar   80  TRP80       0.0810
    125  CE3       12.9960    5.0420   -3.6910 C.ar   80  TRP80       0.0012
    126  CZ2       13.5460    2.9130   -5.4570 C.ar   80  TRP80       0.0191
    127  CZ3       13.3840    5.2940   -5.0040 C.ar   80  TRP80       0.0001
    128  CH2       13.6590    4.2450   -5.8750 C.ar   80  TRP80       0.0015
    129  N          7.6630    0.4280   -1.2540 N.3    96  TRP96      -0.1241
    130  CA         7.7270    1.5900   -2.1330 C.3    96  TRP96       0.1605
    131  C          6.4000    1.8540   -2.8370 C.2    96  TRP96       0.2264
    132  O          5.5160    0.9780   -3.0130 O.2    96  TRP96      -0.2867
    133  CB         8.9290    1.4140   -3.1850 C.3    96  TRP96       0.0550
    134  CG         8.9660    0.1760   -4.0970 C.ar   96  TRP96       0.0003
    135  CD1        9.8420   -0.8500   -3.8330 C.ar   96  TRP96       0.0946
    136  CD2        8.1660   -0.0640   -5.2060 C.ar   96  TRP96       0.0152
    137  NE1        9.6080   -1.7430   -4.7710 N.ar   96  TRP96      -0.2442
    138  CE2        8.6360   -1.3380   -5.6060 C.ar   96  TRP96       0.0810
    139  CE3        7.1310    0.5800   -5.9330 C.ar   96  TRP96       0.0012
    140  CZ2        8.0820   -1.9970   -6.7330 C.ar   96  TRP96       0.0191
    141  CZ3        6.5820   -0.0770   -7.0480 C.ar   96  TRP96       0.0001
    142  CH2        7.0490   -1.3490   -7.4450 C.ar   96  TRP96       0.0015
    143  N          5.3340    3.9670   -6.4380 N.3    98  LEU98      -0.1245
    144  CA         5.6730    4.6470   -7.6930 C.3    98  LEU98       0.1561
    145  C          4.4490    5.3350   -8.2750 C.2    98  LEU98       0.2260
    146  O          3.4430    4.6670   -8.5670 O.2    98  LEU98      -0.2867
    147  CB         6.2520    3.6100   -8.6750 C.3    98  LEU98       0.0270
    148  CG         6.3790    3.8640  -10.2150 C.3    98  LEU98       0.0019
    149  CD1        7.1240    5.1510  -10.5750 C.3    98  LEU98       0.0001
    150  CD2        7.1170    2.6670  -10.7840 C.3    98  LEU98       0.0001
    151  N          7.9390   -3.8880   -2.7950 N.3   115  HIS115     -0.1226
    152  CA         8.8690   -3.9120   -1.6690 C.3   115  HIS115      0.1752
    153  C         10.2960   -4.2100   -2.1350 C.2   115  HIS115      0.2596
    154  O         10.4530   -4.8220   -3.1950 O.2   115  HIS115     -0.2718
    155  CB         8.4040   -4.9660   -0.6320 C.3   115  HIS115      0.0759
    156  CG         8.1630   -6.3440   -1.2510 C.ar  115  HIS115      0.0818
    157  ND1        9.0480   -7.3360   -1.3620 N.ar  115  HIS115     -0.2268
    158  CD2        6.9610   -6.7730   -1.8240 C.ar  115  HIS115      0.1154
    159  CE1        8.4430   -8.3340   -1.9710 C.ar  115  HIS115      0.1986
    160  NE2        7.1910   -7.9890   -2.2400 N.ar  115  HIS115     -0.2212
    161  N         11.3350   -3.8080   -1.3960 N.am  116  ASP116     -0.1974
    162  CA        12.7360   -4.0860   -1.7420 C.3   116  ASP116      0.1709
    163  C         13.6170   -4.3190   -0.5010 C.2   116  ASP116      0.2293
    164  O         13.4290   -3.6440    0.5210 O.2   116  ASP116     -0.2864
    165  CB        13.4010   -2.9170   -2.4980 C.3   116  ASP116      0.1436
    166  CG        13.3700   -2.9190   -4.0210 C.2   116  ASP116      0.3671
    167  OD1       13.0610   -1.8730   -4.5990 O.co2 116  ASP116     -0.2456
    168  OD2       13.6810   -3.9480   -4.6240 O.co2 116  ASP116     -0.2456
@<TRIPOS>BOND
     1    95    94    1
     2    92    93    1
     3    92    91    1
     4    94    93    2
     5    94    96    1
     6    86    87    1
     7    87    90    1
     8    87    88    1
     9    90    91    1
    10    88    89    2
    11    53    51   am
    12    50    51    1
    13    50    47    1
    14    51    52    2
    15    97    98    1
    16    98    99    1
    17    98   101    1
    18    47    48    1
    19    47    46    1
    20   100    99    2
    21    48    49    2
    22    54    55    1
    23    71    70    1
    24    55    58    1
    25    55    56    1
    26    75    74    2
    27    58    59    1
    28    45    42    1
    29    70    69   ar
    30    70    68   ar
    31    69    67   ar
    32    74    73    1
    33    56    57    2
    34    68    66   ar
    35    44    43    2
    36   102   103    1
    37    40    39    1
    38   107   106    1
    39    42    43    1
    40    42    41    1
    41    76    73    1
    42    76    77    1
    43    67    65   ar
    44    41    37   am
    45   106   103    1
    46    73    72    1
    47    66    65   ar
    48   103   104    1
    49    39    36    1
    50    37    38    2
    51    37    36    1
    52    65    64    1
    53    77    79   ar
    54    77    78   ar
    55    36    35    1
    56    82    79   ar
    57    82    84   ar
    58   105   104    2
    59    79    81   ar
    60    78    80   ar
    61    60    61    1
    62    12    11    2
    63    64    61    1
    64    61    62    1
    65    84    85   ar
    66   150   148    1
    67   149   148    1
    68    81    80   ar
    69    81    83   ar
    70   148   147    1
    71    16    14    1
    72    11    10    1
    73    85    83   ar
    74    26    25    2
    75    62    63    2
    76    22    21    1
    77    13    10    1
    78    13    14    1
    79    10     9    1
    80    17    18    1
    81    31    29   ar
    82    31    33   ar
    83    25    24    1
    84    14    15    1
    85    18    21    1
    86    18    19    1
    87    29    28   ar
    88   147   144    1
    89   146   145    2
    90   145   144    1
    91   113   112    1
    92    34    33    1
    93    33    32   ar
    94   144   143    1
    95    19    20    2
    96   108   109    1
    97    28    27    1
    98    28    30   ar
    99   142   141   ar
   100   142   140   ar
   101    24    27    1
   102    24    23    1
   103   141   139   ar
   104     7     6    2
   105   112   109    1
   106   112   114    1
   107   140   138   ar
   108    32    30   ar
   109   109   110    1
   110     8     6   am
   111     6     5    1
   112   139   136   ar
   113   128   126   ar
   114   128   127   ar
   115     4     3    2
   116   138   136   ar
   117   138   137   ar
   118   126   124   ar
   119   136   134   ar
   120   110   111    2
   121     3     2    1
   122   127   125   ar
   123   137   135   ar
   124   168   166   ar
   125   167   166   ar
   126     5     2    1
   127     1     2    1
   128   124   123   ar
   129   124   122   ar
   130   134   135   ar
   131   134   133    1
   132   166   165    1
   133   125   122   ar
   134   123   121   ar
   135   122   120   ar
   136   154   153    2
   137   133   130    1
   138   132   131    2
   139   131   130    1
   140   151   152    1
   141   165   162    1
   142   160   159   ar
   143   160   158   ar
   144   121   120   ar
   145   153   152    1
   146   153   161   am
   147   130   129    1
   148   120   119    1
   149   159   157   ar
   150   158   156   ar
   151   162   161    1
   152   162   163    1
   153   152   155    1
   154   157   156   ar
   155   156   155    1
   156   115   116    1
   157   119   116    1
   158   163   164    2
   159   116   117    1
   160   117   118    2
