@<TRIPOS>MOLECULE
tmp/1vwjA00.pdb
 134 129 0 0 0
SMALL
GASTEIGER

@<TRIPOS>ATOM
      1  N         42.4400   12.2290   -0.4200 N.3    11  ASN11      -0.1240
      2  CA        42.1050   10.8020   -0.5040 C.3    11  ASN11       0.1653
      3  C         42.9230   10.2710   -1.6770 C.2    11  ASN11       0.2266
      4  O         43.6560   11.0020   -2.3190 O.2    11  ASN11      -0.2867
      5  CB        40.5820   10.5990   -0.7170 C.3    11  ASN11       0.1155
      6  CG        39.9870   11.0880   -2.0230 C.2    11  ASN11       0.2627
      7  OD1       40.6690   11.4420   -2.9600 O.2    11  ASN11      -0.2716
      8  ND2       38.7010   11.1280   -2.1510 N.am   11  ASN11      -0.0877
      9  N         42.1040    9.5180   -4.7020 N.3    13  LEU13      -0.1245
     10  CA        41.7560   10.0060   -6.0660 C.3    13  LEU13       0.1561
     11  C         42.4040   11.3970   -6.2250 C.2    13  LEU13       0.2260
     12  O         42.4910   11.8920   -7.3330 O.2    13  LEU13      -0.2867
     13  CB        40.2430   10.2510   -6.2870 C.3    13  LEU13       0.0270
     14  CG        39.4200    8.9450   -6.2360 C.3    13  LEU13       0.0019
     15  CD1       37.9300    9.2640   -6.3840 C.3    13  LEU13       0.0001
     16  CD2       39.8260    8.0350   -7.3620 C.3    13  LEU13       0.0001
     17  N         41.4330   14.2030   -4.2170 N.3    15  SER15      -0.1217
     18  CA        40.5240   15.2960   -3.8210 C.3    15  SER15       0.1889
     19  C         41.0230   15.8300   -2.4620 C.2    15  SER15       0.2288
     20  O         41.7140   15.1000   -1.7660 O.2    15  SER15      -0.2866
     21  CB        39.1290   14.8080   -3.6210 C.3    15  SER15       0.2089
     22  OG        38.7030   14.0830   -4.7670 O.3    15  SER15      -0.2183
     23  N         35.2200   20.9710    0.1540 N.3    31  TYR31      -0.1241
     24  CA        35.6930   19.7300   -0.5340 C.3    31  TYR31       0.1605
     25  C         36.1590   20.1700   -1.9410 C.2    31  TYR31       0.2264
     26  O         35.4590   20.9360   -2.5720 O.2    31  TYR31      -0.2867
     27  CB        34.4950   18.7440   -0.5910 C.3    31  TYR31       0.0534
     28  CG        35.0080   17.3300   -0.8690 C.ar   31  TYR31      -0.0201
     29  CD1       35.2890   16.8770   -2.1700 C.ar   31  TYR31      -0.0009
     30  CD2       35.2120   16.4790    0.2090 C.ar   31  TYR31      -0.0009
     31  CE1       35.7750   15.5870   -2.3770 C.ar   31  TYR31       0.0417
     32  CE2       35.7000   15.1890    0.0010 C.ar   31  TYR31       0.0417
     33  CZ        35.9860   14.7290   -1.2860 C.ar   31  TYR31       0.1957
     34  OH        36.4860   13.4500   -1.4560 O.3    31  TYR31      -0.2866
     35  N         37.7110   19.0380   -5.7840 N.3    33  SER33      -0.1202
     36  CA        37.8380   17.9610   -6.8050 C.3    33  SER33       0.2020
     37  C         39.3650   17.7560   -6.9830 C.2    33  SER33       0.2619
     38  O         40.1580   18.6480   -6.6930 O.2    33  SER33      -0.2717
     39  CB        37.1540   18.4670   -8.1230 C.3    33  SER33       0.2103
     40  OG        36.9890   17.3410   -8.9620 O.3    33  SER33      -0.2182
     41  N         39.6570   16.5690   -7.4630 N.am   34  ALA34      -0.1965
     42  CA        41.0310   16.0550   -7.7450 C.3    34  ALA34       0.1728
     43  C         41.7310   16.9560   -8.7850 C.2    34  ALA34       0.2616
     44  O         41.3690   16.9250   -9.9490 O.2    34  ALA34      -0.2715
     45  CB        40.8460   14.6110   -8.2320 C.3    34  ALA34       0.0334
     46  N         42.7120   17.7000   -8.3190 N.am   35  VAL35      -0.1977
     47  CA        43.4970   18.6440   -9.1720 C.3    35  VAL35       0.1596
     48  C         42.3820   19.5370   -9.8140 C.2    35  VAL35       0.2287
     49  O         41.2770   19.5800   -9.3080 O.2    35  VAL35      -0.2864
     50  CB        44.3430   17.7620  -10.2320 C.3    35  VAL35       0.0276
     51  CG1       45.5590   18.4980  -10.8760 C.3    35  VAL35       0.0022
     52  CG2       44.8870   16.4420   -9.5850 C.3    35  VAL35       0.0022
     53  N         33.4560   23.0160   -3.0910 N.3    42  TYR42      -0.1241
     54  CA        32.0210   22.8770   -2.6810 C.3    42  TYR42       0.1605
     55  C         31.9010   22.8930   -1.1250 C.2    42  TYR42       0.2264
     56  O         32.8070   22.4760   -0.4310 O.2    42  TYR42      -0.2867
     57  CB        31.5130   21.5670   -3.2150 C.3    42  TYR42       0.0534
     58  CG        31.6560   21.4830   -4.7410 C.ar   42  TYR42      -0.0201
     59  CD1       32.8390   21.1060   -5.3560 C.ar   42  TYR42      -0.0009
     60  CD2       30.5640   21.7630   -5.5250 C.ar   42  TYR42      -0.0009
     61  CE1       32.9070   21.0120   -6.7370 C.ar   42  TYR42       0.0417
     62  CE2       30.6300   21.6690   -6.9100 C.ar   42  TYR42       0.0417
     63  CZ        31.8020   21.2930   -7.5060 C.ar   42  TYR42       0.1957
     64  OH        31.8280   21.2060   -8.8700 O.3    42  TYR42      -0.2866
     65  N         26.6770   18.7920   -4.9410 N.3    67  TRP67      -0.1241
     66  CA        27.5610   19.2640   -6.0150 C.3    67  TRP67       0.1605
     67  C         27.0650   20.4200   -6.8930 C.2    67  TRP67       0.2264
     68  O         26.7780   20.3070   -8.0710 O.2    67  TRP67      -0.2867
     69  CB        27.9290   17.9850   -6.8620 C.3    67  TRP67       0.0550
     70  CG        28.5740   16.8310   -6.0240 C.ar   67  TRP67       0.0003
     71  CD1       27.9260   15.6620   -5.6970 C.ar   67  TRP67       0.0946
     72  CD2       29.8550   16.7780   -5.5220 C.ar   67  TRP67       0.0152
     73  NE1       28.8450   14.9710   -5.0280 N.ar   67  TRP67      -0.2442
     74  CE2       30.0350   15.5430   -4.8660 C.ar   67  TRP67       0.0810
     75  CE3       30.9380   17.6780   -5.5600 C.ar   67  TRP67       0.0012
     76  CZ2       31.2720   15.2260   -4.2810 C.ar   67  TRP67       0.0191
     77  CZ3       32.1680   17.3540   -4.9690 C.ar   67  TRP67       0.0001
     78  CH2       32.3360   16.1240   -4.3290 C.ar   67  TRP67       0.0015
     79  N         26.0910   19.7510  -10.6120 N.3    74  ALA74      -0.1245
     80  CA        26.0460   18.3410  -11.1000 C.3    74  ALA74       0.1562
     81  C         24.7700   17.6180  -10.6580 C.2    74  ALA74       0.2260
     82  O         24.7170   16.4120  -10.8040 O.2    74  ALA74      -0.2867
     83  CB        27.2580   17.5390  -10.6020 C.3    74  ALA74       0.0290
     84  N         26.5380   13.7650   -2.3080 N.3    78  THR78      -0.1218
     85  CA        27.2690   12.5860   -1.7830 C.3    78  THR78       0.1862
     86  C         27.3480   12.6790   -0.2760 C.2    78  THR78       0.2287
     87  O         27.4570   13.7870    0.2410 O.2    78  THR78      -0.2866
     88  CB        28.7330   12.5460   -2.3470 C.3    78  THR78       0.1770
     89  OG1       28.6140   12.4720   -3.7860 O.3    78  THR78      -0.2211
     90  CG2       29.5430   11.3080   -1.8250 C.3    78  THR78       0.0375
     91  N         29.3990   10.8340    3.0240 N.3    80  TRP80      -0.1241
     92  CA        30.5000    9.9370    3.4200 C.3    80  TRP80       0.1605
     93  C         30.2190    9.5480    4.8760 C.2    80  TRP80       0.2264
     94  O         29.9470   10.4340    5.6810 O.2    80  TRP80      -0.2867
     95  CB        31.8520   10.6440    3.3890 C.3    80  TRP80       0.0550
     96  CG        32.5070   10.8560    2.0060 C.ar   80  TRP80       0.0003
     97  CD1       33.4620   10.0410    1.5090 C.ar   80  TRP80       0.0946
     98  CD2       32.2680   11.8590    1.1280 C.ar   80  TRP80       0.0152
     99  NE1       33.7430   10.6130    0.3520 N.ar   80  TRP80      -0.2442
    100  CE2       33.0920   11.7040    0.0260 C.ar   80  TRP80       0.0810
    101  CE3       31.3940   12.9320    1.1910 C.ar   80  TRP80       0.0012
    102  CZ2       33.0470   12.6320   -1.0200 C.ar   80  TRP80       0.0191
    103  CZ3       31.3430   13.8610    0.1510 C.ar   80  TRP80       0.0001
    104  CH2       32.1750   13.6990   -0.9460 C.ar   80  TRP80       0.0015
    105  N         30.8510    5.7550    0.8830 N.3    96  TRP96      -0.1241
    106  CA        30.0060    6.8850    0.4760 C.3    96  TRP96       0.1605
    107  C         28.8850    6.4700   -0.4450 C.2    96  TRP96       0.2264
    108  O         28.9560    5.4100   -1.0380 O.2    96  TRP96      -0.2867
    109  CB        30.8740    7.9580   -0.1990 C.3    96  TRP96       0.0550
    110  CG        31.7750    7.4720   -1.2980 C.ar   96  TRP96       0.0003
    111  CD1       33.1020    7.2310   -1.1380 C.ar   96  TRP96       0.0946
    112  CD2       31.4210    7.2560   -2.5960 C.ar   96  TRP96       0.0152
    113  NE1       33.4930    6.8830   -2.3510 N.ar   96  TRP96      -0.2442
    114  CE2       32.5650    6.8670   -3.2950 C.ar   96  TRP96       0.0810
    115  CE3       30.1930    7.3540   -3.2990 C.ar   96  TRP96       0.0012
    116  CZ2       32.5130    6.5740   -4.6810 C.ar   96  TRP96       0.0191
    117  CZ3       30.1410    7.0620   -4.6810 C.ar   96  TRP96       0.0001
    118  CH2       31.2970    6.6720   -5.3700 C.ar   96  TRP96       0.0015
    119  N         26.5260    8.2790   -3.5050 N.3    98  LEU98      -0.1245
    120  CA        26.4030    9.4710   -4.4110 C.3    98  LEU98       0.1561
    121  C         25.0370    9.2760   -5.0730 C.2    98  LEU98       0.2260
    122  O         24.8800    8.2990   -5.7890 O.2    98  LEU98      -0.2867
    123  CB        27.5870    9.3980   -5.3960 C.3    98  LEU98       0.0270
    124  CG        27.4260   10.2640   -6.7040 C.3    98  LEU98       0.0019
    125  CD1       26.9980   11.7260   -6.4170 C.3    98  LEU98       0.0001
    126  CD2       28.8120   10.3210   -7.4110 C.3    98  LEU98       0.0001
    127  N         36.3980    5.6030    0.3080 N.3   116  ASP116     -0.1239
    128  CA        37.6150    6.4730    0.2200 C.3   116  ASP116      0.1674
    129  C         38.3070    6.5140    1.6030 C.2   116  ASP116      0.2266
    130  O         37.6530    6.4290    2.6370 O.2   116  ASP116     -0.2867
    131  CB        37.3510    7.9970   -0.0680 C.3   116  ASP116      0.1410
    132  CG        36.6820    8.3900   -1.4140 C.2   116  ASP116      0.3668
    133  OD1       36.8890    7.6270   -2.3440 O.co2 116  ASP116     -0.2456
    134  OD2       36.0200    9.4330   -1.4330 O.co2 116  ASP116     -0.2456
@<TRIPOS>BOND
     1    80    81    1
     2    80    79    1
     3    80    83    1
     4    51    50    1
     5    82    81    2
     6    50    52    1
     7    50    47    1
     8    44    43    2
     9    48    49    2
    10    48    47    1
    11    47    46    1
    12    40    39    1
    13    64    63    1
    14    43    46   am
    15    43    42    1
    16    45    42    1
    17    39    36    1
    18    68    67    2
    19    42    41    1
    20    63    62   ar
    21    63    61   ar
    22    41    37   am
    23   126   124    1
    24    16    14    1
    25    12    11    2
    26    37    36    1
    27    37    38    2
    28    62    60   ar
    29    67    66    1
    30    69    70    1
    31    69    66    1
    32    36    35    1
    33    61    59   ar
    34   124   125    1
    35   124   123    1
    36    15    14    1
    37    13    14    1
    38    13    10    1
    39    11    10    1
    40    10     9    1
    41    70    71   ar
    42    70    72   ar
    43    66    65    1
    44   122   121    2
    45    71    73   ar
    46    75    72   ar
    47    75    77   ar
    48    60    58   ar
    49    72    74   ar
    50   123   120    1
    51   118   116   ar
    52   118   117   ar
    53    59    58   ar
    54   121   120    1
    55    73    74   ar
    56    77    78   ar
    57    74    76   ar
    58    22    21    1
    59    58    57    1
    60   116   114   ar
    61   117   115   ar
    62   120   119    1
    63    78    76   ar
    64    17    18    1
    65    18    21    1
    66    18    19    1
    67    89    88    1
    68   115   112   ar
    69   114   112   ar
    70   114   113   ar
    71    57    54    1
    72    53    54    1
    73     7     6    2
    74    54    55    1
    75   112   110   ar
    76    26    25    2
    77    19    20    2
    78    31    29   ar
    79    31    33   ar
    80   113   111   ar
    81    88    90    1
    82    88    85    1
    83   133   132   ar
    84     4     3    2
    85    84    85    1
    86    29    28   ar
    87     8     6   am
    88     6     5    1
    89    25    24    1
    90    85    86    1
    91     3     2    1
    92    34    33    1
    93   134   132   ar
    94   132   131    1
    95   110   111   ar
    96   110   109    1
    97    33    32   ar
    98    55    56    2
    99   108   107    2
   100   102   104   ar
   101   102   100   ar
   102   104   103   ar
   103    28    27    1
   104    28    30   ar
   105     5     2    1
   106    27    24    1
   107    24    23    1
   108     2     1    1
   109   107   106    1
   110    86    87    2
   111   109   106    1
   112   131   128    1
   113    32    30   ar
   114   100    99   ar
   115   100    98   ar
   116   103   101   ar
   117   128   127    1
   118   128   129    1
   119    99    97   ar
   120   106   105    1
   121    98   101   ar
   122    98    96   ar
   123    97    96   ar
   124   129   130    2
   125    96    95    1
   126    91    92    1
   127    95    92    1
   128    92    93    1
   129    93    94    2
