@<TRIPOS>MOLECULE
tmp/1vwpA00.pdb
 172 163 0 0 0
SMALL
GASTEIGER

@<TRIPOS>ATOM
      1  N         16.8460   -6.9380   -7.8450 N.3    13  LEU13      -0.1245
      2  CA        16.5180   -6.7170   -9.2460 C.3    13  LEU13       0.1561
      3  C         17.6590   -6.1290  -10.0500 C.2    13  LEU13       0.2260
      4  O         17.3780   -5.6470  -11.1430 O.2    13  LEU13      -0.2867
      5  CB        15.4200   -5.7320   -9.4080 C.3    13  LEU13       0.0270
      6  CG        14.0500   -5.9810   -8.9190 C.3    13  LEU13       0.0019
      7  CD1       13.4320   -4.6400   -8.5130 C.3    13  LEU13       0.0001
      8  CD2       13.2640   -6.6870   -9.9980 C.3    13  LEU13       0.0001
      9  N         19.3460   -3.1300   -9.2340 N.3    15  SER15      -0.1217
     10  CA        19.5850   -1.7160   -8.9630 C.3    15  SER15       0.1889
     11  C         20.6170   -1.4200   -7.8830 C.2    15  SER15       0.2288
     12  O         20.8600   -2.2330   -6.9880 O.2    15  SER15      -0.2866
     13  CB        18.3140   -1.0090   -8.5440 C.3    15  SER15       0.2089
     14  OG        17.2520   -1.3130   -9.4050 O.3    15  SER15      -0.2183
     15  N         20.5620    7.0100   -7.4460 N.3    31  TYR31      -0.1241
     16  CA        19.9590    5.7150   -7.6880 C.3    31  TYR31       0.1605
     17  C         20.3460    5.3430   -9.0660 C.2    31  TYR31       0.2264
     18  O         20.1180    6.1900   -9.9160 O.2    31  TYR31      -0.2867
     19  CB        18.4960    5.8350   -7.6780 C.3    31  TYR31       0.0534
     20  CG        17.8180    4.4940   -7.4750 C.ar   31  TYR31      -0.0201
     21  CD1       17.6060    4.0420   -6.1740 C.ar   31  TYR31      -0.0009
     22  CD2       17.3920    3.6970   -8.5610 C.ar   31  TYR31      -0.0009
     23  CE1       16.9890    2.8060   -5.9590 C.ar   31  TYR31       0.0417
     24  CE2       16.7780    2.4510   -8.3600 C.ar   31  TYR31       0.0417
     25  CZ        16.5970    2.0370   -7.0560 C.ar   31  TYR31       0.1957
     26  OH        16.0490    0.8220   -6.8120 O.3    31  TYR31      -0.2866
     27  N         19.4560    2.5740  -11.9340 N.3    33  SER33      -0.1202
     28  CA        18.7040    1.4090  -12.3980 C.3    33  SER33       0.2020
     29  C         19.5110    0.2390  -12.9910 C.2    33  SER33       0.2619
     30  O         19.2940   -0.8980  -12.5520 O.2    33  SER33      -0.2717
     31  CB        17.7210    1.8270  -13.4500 C.3    33  SER33       0.2103
     32  OG        17.2850    3.1440  -13.1630 O.3    33  SER33      -0.2182
     33  N         20.4450    0.4080  -13.9460 N.am   34  ALA34      -0.1965
     34  CA        20.9890   -0.7230  -14.7050 C.3    34  ALA34       0.1728
     35  C         22.0670   -0.2670  -15.6740 C.2    34  ALA34       0.2616
     36  O         22.4490    0.9000  -15.6600 O.2    34  ALA34      -0.2715
     37  CB        19.8980   -1.4150  -15.5390 C.3    34  ALA34       0.0334
     38  N         22.5120   -1.2030  -16.5260 N.am   35  VAL35      -0.1977
     39  CA        23.4790   -1.0640  -17.6120 C.3    35  VAL35       0.1596
     40  C         24.8570   -0.5720  -17.1670 C.2    35  VAL35       0.2287
     41  O         25.8110   -1.2860  -17.4480 O.2    35  VAL35      -0.2864
     42  CB        22.9040   -0.1360  -18.7430 C.3    35  VAL35       0.0276
     43  CG1       23.8060   -0.2140  -19.9710 C.3    35  VAL35       0.0022
     44  CG2       21.5060   -0.5750  -19.1710 C.3    35  VAL35       0.0022
     45  N         25.9150    3.1440  -16.8680 N.3    37  ASN37      -0.1240
     46  CA        25.9440    4.2200  -17.8500 C.3    37  ASN37       0.1653
     47  C         25.2790    5.4360  -17.2310 C.2    37  ASN37       0.2266
     48  O         24.2820    5.2930  -16.5330 O.2    37  ASN37      -0.2867
     49  CB        25.1720    3.8050  -19.1100 C.3    37  ASN37       0.1155
     50  CG        23.7780    3.2650  -18.8070 C.2    37  ASN37       0.2627
     51  OD1       23.4950    2.7860  -17.7120 O.2    37  ASN37      -0.2716
     52  ND2       22.8120    3.2320  -19.7020 N.am   37  ASN37      -0.0877
     53  N         23.2120    7.4870  -18.1270 N.3    39  GLU39      -0.1231
     54  CA        21.7990    7.5200  -18.4090 C.3    39  GLU39       0.1699
     55  C         20.8740    6.8180  -17.4420 C.2    39  GLU39       0.2592
     56  O         19.6650    7.0680  -17.5110 O.2    39  GLU39      -0.2718
     57  CB        21.4910    6.9520  -19.7840 C.3    39  GLU39       0.0402
     58  CG        22.5430    6.1850  -20.5390 C.3    39  GLU39       0.1161
     59  CD        22.0970    5.7640  -21.9250 C.2    39  GLU39       0.3649
     60  OE1       21.0620    5.1110  -22.0630 O.co2  39  GLU39      -0.2457
     61  OE2       22.8050    6.0910  -22.8710 O.co2  39  GLU39      -0.2457
     62  N         21.3320    5.9180  -16.5760 N.am   40  SER40      -0.1952
     63  CA        20.4100    5.3410  -15.6280 C.3    40  SER40       0.1924
     64  C         20.6090    5.9120  -14.2310 C.2    40  SER40       0.2314
     65  O         20.0420    5.3350  -13.3010 O.2    40  SER40      -0.2863
     66  CB        20.6080    3.8510  -15.6540 C.3    40  SER40       0.2116
     67  OG        22.0080    3.6690  -15.4940 O.3    40  SER40      -0.2180
     68  N         19.8810    8.7000  -11.3960 N.3    42  TYR42      -0.1241
     69  CA        18.8900    9.6740  -10.9570 C.3    42  TYR42       0.1605
     70  C         19.2200   10.1710   -9.5550 C.2    42  TYR42       0.2264
     71  O         19.7860    9.4690   -8.6980 O.2    42  TYR42      -0.2867
     72  CB        17.5330    9.0610  -10.9190 C.3    42  TYR42       0.0534
     73  CG        17.1320    8.4870  -12.2520 C.ar   42  TYR42      -0.0201
     74  CD1       17.6200    7.2560  -12.6930 C.ar   42  TYR42      -0.0009
     75  CD2       16.3090    9.2840  -13.0330 C.ar   42  TYR42      -0.0009
     76  CE1       17.2890    6.8350  -13.9790 C.ar   42  TYR42       0.0417
     77  CE2       15.9740    8.8690  -14.3060 C.ar   42  TYR42       0.0417
     78  CZ        16.4520    7.6550  -14.7600 C.ar   42  TYR42       0.1957
     79  OH        16.0310    7.2740  -16.0090 O.3    42  TYR42      -0.2866
     80  N         11.9310   10.1970  -11.7470 N.3    67  TRP67      -0.1241
     81  CA        12.5790    9.4630  -12.8570 C.3    67  TRP67       0.1605
     82  C         12.7960   10.3960  -14.1000 C.2    67  TRP67       0.2264
     83  O         12.1890   10.2520  -15.1710 O.2    67  TRP67      -0.2867
     84  CB        11.6780    8.2490  -13.1100 C.3    67  TRP67       0.0550
     85  CG        11.6510    7.2820  -11.9190 C.ar   67  TRP67       0.0003
     86  CD1       10.5010    7.1050  -11.2240 C.ar   67  TRP67       0.0946
     87  CD2       12.6900    6.5120  -11.4770 C.ar   67  TRP67       0.0152
     88  NE1       10.8070    6.1920  -10.3200 N.ar   67  TRP67      -0.2442
     89  CE2       12.0790    5.8370  -10.4280 C.ar   67  TRP67       0.0810
     90  CE3       14.0470    6.2640  -11.7560 C.ar   67  TRP67       0.0012
     91  CZ2       12.7910    4.9170   -9.6800 C.ar   67  TRP67       0.0191
     92  CZ3       14.7850    5.3350  -10.9990 C.ar   67  TRP67       0.0001
     93  CH2       14.1370    4.6660   -9.9630 C.ar   67  TRP67       0.0015
     94  N         16.2950   10.8400  -19.9840 N.3    72  ARG72      -0.1245
     95  CA        15.0750   10.0790  -19.8060 C.3    72  ARG72       0.1563
     96  C         14.1380   10.9400  -18.9800 C.2    72  ARG72       0.2260
     97  O         14.5650   11.6030  -18.0330 O.2    72  ARG72      -0.2867
     98  CB        15.4160    8.8080  -19.0760 C.3    72  ARG72       0.0307
     99  CG        14.2780    7.8340  -18.8940 C.3    72  ARG72       0.0489
    100  CD        13.7580    7.4020  -20.2740 C.3    72  ARG72       0.2205
    101  NE        12.7730    6.3370  -20.1340 N.pl3  72  ARG72      -0.0865
    102  CZ        11.4500    6.5110  -20.1870 C.cat  72  ARG72       0.5346
    103  NH1       10.8830    7.6870  -20.3920 N.pl3  72  ARG72       0.1354
    104  NH2       10.6860    5.4440  -19.9610 N.pl3  72  ARG72       0.1354
    105  N         10.5240    9.8870  -17.4610 N.3    74  ALA74      -0.1245
    106  CA         9.4790    8.9200  -17.3440 C.3    74  ALA74       0.1562
    107  C          8.2660    9.4470  -16.6180 C.2    74  ALA74       0.2260
    108  O          7.3780    8.6670  -16.3220 O.2    74  ALA74      -0.2867
    109  CB        10.0240    7.7190  -16.6190 C.3    74  ALA74       0.0290
    110  N          7.0730   10.3040  -13.6860 N.3    76  SER76      -0.1217
    111  CA         6.8440    9.5330  -12.4620 C.3    76  SER76       0.1889
    112  C          7.9080    9.7440  -11.3600 C.2    76  SER76       0.2288
    113  O          9.0240   10.2790  -11.5670 O.2    76  SER76      -0.2866
    114  CB         6.7160    8.0100  -12.7990 C.3    76  SER76       0.2089
    115  OG         7.7450    7.3690  -13.5390 O.3    76  SER76      -0.2183
    116  N          9.0900    7.6700   -7.3950 N.3    78  THR78      -0.1218
    117  CA         8.9590    6.5870   -6.4150 C.3    78  THR78       0.1862
    118  C          9.4680    7.0850   -5.0540 C.2    78  THR78       0.2287
    119  O         10.4820    7.7990   -4.9350 O.2    78  THR78      -0.2866
    120  CB         9.8030    5.3720   -6.8320 C.3    78  THR78       0.1770
    121  OG1        9.3190    5.0220   -8.1520 O.3    78  THR78      -0.2211
    122  CG2        9.7110    4.1780   -5.8740 C.3    78  THR78       0.0375
    123  N         10.3710    5.2910   -1.2460 N.3    80  TRP80      -0.1241
    124  CA        10.5940    4.1170   -0.4440 C.3    80  TRP80       0.1605
    125  C         10.5600    4.5110    1.0260 C.2    80  TRP80       0.2264
    126  O         11.1910    5.4980    1.4770 O.2    80  TRP80      -0.2867
    127  CB        11.9990    3.4920   -0.7090 C.3    80  TRP80       0.0550
    128  CG        12.2290    2.9270   -2.1340 C.ar   80  TRP80       0.0003
    129  CD1       12.3180    1.5810   -2.3140 C.ar   80  TRP80       0.0946
    130  CD2       12.5210    3.6480   -3.3020 C.ar   80  TRP80       0.0152
    131  NE1       12.6920    1.4270   -3.5600 N.ar   80  TRP80      -0.2442
    132  CE2       12.8310    2.6080   -4.1880 C.ar   80  TRP80       0.0810
    133  CE3       12.6070    4.9790   -3.7410 C.ar   80  TRP80       0.0012
    134  CZ2       13.2350    2.8570   -5.5160 C.ar   80  TRP80       0.0191
    135  CZ3       13.0160    5.2420   -5.0510 C.ar   80  TRP80       0.0001
    136  CH2       13.3250    4.1950   -5.9260 C.ar   80  TRP80       0.0015
    137  N          7.4900    0.4910   -1.3020 N.3    96  TRP96      -0.1241
    138  CA         7.6470    1.6520   -2.1280 C.3    96  TRP96       0.1605
    139  C          6.3290    1.9120   -2.7960 C.2    96  TRP96       0.2264
    140  O          5.4560    1.0440   -2.9570 O.2    96  TRP96      -0.2867
    141  CB         8.8220    1.4120   -3.1880 C.3    96  TRP96       0.0550
    142  CG         8.8090    0.1970   -4.1310 C.ar   96  TRP96       0.0003
    143  CD1        9.6580   -0.8500   -3.9000 C.ar   96  TRP96       0.0946
    144  CD2        7.9670    0.0160   -5.2270 C.ar   96  TRP96       0.0152
    145  NE1        9.3210   -1.7100   -4.8620 N.ar   96  TRP96      -0.2442
    146  CE2        8.3540   -1.2490   -5.6530 C.ar   96  TRP96       0.0810
    147  CE3        6.9620    0.6910   -5.9420 C.ar   96  TRP96       0.0012
    148  CZ2        7.7380   -1.8380   -6.7750 C.ar   96  TRP96       0.0191
    149  CZ3        6.3710    0.1090   -7.0380 C.ar   96  TRP96       0.0001
    150  CH2        6.7400   -1.1500   -7.4620 C.ar   96  TRP96       0.0015
    151  N          5.1500    3.9920   -6.3790 N.3    98  LEU98      -0.1245
    152  CA         5.5070    4.6830   -7.6510 C.3    98  LEU98       0.1561
    153  C          4.2800    5.3570   -8.2300 C.2    98  LEU98       0.2260
    154  O          3.2820    4.6990   -8.5780 O.2    98  LEU98      -0.2867
    155  CB         6.0860    3.6270   -8.6480 C.3    98  LEU98       0.0270
    156  CG         6.1570    3.8460  -10.1910 C.3    98  LEU98       0.0019
    157  CD1        6.7240    5.1780  -10.5680 C.3    98  LEU98       0.0001
    158  CD2        7.0590    2.7880  -10.7670 C.3    98  LEU98       0.0001
    159  N          2.7260    7.7050  -11.3650 N.3   100  SER100     -0.1217
    160  CA         2.9190    8.3590  -12.6620 C.3   100  SER100      0.1889
    161  C          1.9560    9.5390  -12.7950 C.2   100  SER100      0.2288
    162  O          0.8180    9.4960  -12.2850 O.2   100  SER100     -0.2866
    163  CB         2.6390    7.3490  -13.7590 C.3   100  SER100      0.2089
    164  OG         3.5170    6.2410  -13.6630 O.3   100  SER100     -0.2183
    165  N         11.2140   -3.7160   -1.6810 N.3   116  ASP116     -0.1239
    166  CA        12.6000   -4.1020   -1.9910 C.3   116  ASP116      0.1674
    167  C         13.4330   -4.3150   -0.7350 C.2   116  ASP116      0.2266
    168  O         13.2460   -3.6260    0.2550 O.2   116  ASP116     -0.2867
    169  CB        13.4310   -3.0590   -2.7220 C.3   116  ASP116      0.1410
    170  CG        13.0920   -2.8240   -4.1650 C.2   116  ASP116      0.3668
    171  OD1       13.1110   -3.7790   -4.9490 O.co2 116  ASP116     -0.2456
    172  OD2       12.8600   -1.6590   -4.4940 O.co2 116  ASP116     -0.2456
@<TRIPOS>BOND
     1    61    59   ar
     2    60    59   ar
     3    59    58    1
     4    58    57    1
     5   103   102    1
     6   100   101    1
     7   100    99    1
     8   102   101    2
     9   102   104    1
    10    94    95    1
    11    43    42    1
    12    95    98    1
    13    95    96    1
    14    57    54    1
    15    52    50   am
    16    44    42    1
    17    49    50    1
    18    49    46    1
    19    98    99    1
    20    96    97    2
    21    50    51    2
    22    42    39    1
    23    54    53    1
    24    54    55    1
    25    46    47    1
    26    46    45    1
    27    39    40    1
    28    39    38    1
    29    56    55    2
    30   105   106    1
    31    41    40    2
    32    55    62   am
    33   106   109    1
    34   106   107    1
    35    47    48    2
    36   107   108    2
    37    62    63    1
    38    38    35   am
    39    79    78    1
    40    35    36    2
    41    35    34    1
    42    66    63    1
    43    66    67    1
    44    63    64    1
    45    37    34    1
    46    83    82    2
    47    78    77   ar
    48    78    76   ar
    49    34    33    1
    50    77    75   ar
    51    64    65    2
    52    82    81    1
    53    76    74   ar
    54    33    29   am
    55   163   164    1
    56   163   160    1
    57   110   111    1
    58   115   114    1
    59    31    32    1
    60    31    28    1
    61    84    81    1
    62    84    85    1
    63    75    73   ar
    64    29    30    2
    65    29    28    1
    66    81    80    1
    67   114   111    1
    68   161   160    1
    69   161   162    2
    70    74    73   ar
    71   160   159    1
    72   111   112    1
    73    28    27    1
    74    73    72    1
    75    85    87   ar
    76    85    86   ar
    77    90    87   ar
    78    90    92   ar
    79   113   112    2
    80    87    89   ar
    81    68    69    1
    82    86    88   ar
    83     4     3    2
    84    92    93   ar
    85    69    72    1
    86    69    70    1
    87   158   156    1
    88   157   156    1
    89    89    88   ar
    90    89    91   ar
    91   156   155    1
    92     3     2    1
    93     8     6    1
    94    93    91   ar
    95    18    17    2
    96    70    71    2
    97     5     2    1
    98     5     6    1
    99    14    13    1
   100     2     1    1
   101     9    10    1
   102    17    16    1
   103    10    13    1
   104    10    11    1
   105     6     7    1
   106   155   152    1
   107   154   153    2
   108    22    24   ar
   109    22    20   ar
   110    24    25   ar
   111   153   152    1
   112   121   120    1
   113    11    12    2
   114    16    19    1
   115    16    15    1
   116    19    20    1
   117   152   151    1
   118    20    21   ar
   119   150   149   ar
   120   150   148   ar
   121   116   117    1
   122    25    26    1
   123    25    23   ar
   124   149   147   ar
   125   120   117    1
   126   120   122    1
   127   148   146   ar
   128   117   118    1
   129    21    23   ar
   130   147   144   ar
   131   136   134   ar
   132   136   135   ar
   133   146   144   ar
   134   146   145   ar
   135   134   132   ar
   136   144   142   ar
   137   118   119    2
   138   135   133   ar
   139   171   170   ar
   140   145   143   ar
   141   172   170   ar
   142   132   131   ar
   143   132   130   ar
   144   170   169    1
   145   142   143   ar
   146   142   141    1
   147   133   130   ar
   148   131   129   ar
   149   130   128   ar
   150   141   138    1
   151   140   139    2
   152   139   138    1
   153   169   166    1
   154   129   128   ar
   155   128   127    1
   156   138   137    1
   157   166   165    1
   158   166   167    1
   159   123   124    1
   160   167   168    2
   161   127   124    1
   162   124   125    1
   163   125   126    2
