@<TRIPOS>MOLECULE
tmp/1vyfA00.pdb
 217 198 0 0 0
SMALL
GASTEIGER

@<TRIPOS>ATOM
      1  N         11.7120   23.0060    2.9130 N.3    18  PHE18      -0.1241
      2  CA        11.3740   24.1440    3.7700 C.3    18  PHE18       0.1605
      3  C          9.8950   24.1710    4.1610 C.2    18  PHE18       0.2264
      4  O          9.5750   24.5880    5.2770 O.2    18  PHE18      -0.2867
      5  CB        11.7740   25.4550    3.0930 C.3    18  PHE18       0.0534
      6  CG        11.7720   26.6890    4.0060 C.ar   18  PHE18      -0.0203
      7  CD1       12.3850   26.6840    5.2530 C.ar   18  PHE18      -0.0042
      8  CD2       11.1730   27.8450    3.5870 C.ar   18  PHE18      -0.0042
      9  CE1       12.3920   27.8320    6.0640 C.ar   18  PHE18      -0.0003
     10  CE2       11.1760   28.9960    4.3960 C.ar   18  PHE18      -0.0003
     11  CZ        11.8050   28.9660    5.6410 C.ar   18  PHE18      -0.0000
     12  N          9.1380   22.5070    7.4370 N.3    21  VAL21      -0.1231
     13  CA         9.5020   23.1800    8.6950 C.3    21  VAL21       0.1692
     14  C          8.5580   24.2980    9.0170 C.2    21  VAL21       0.2591
     15  O          8.2090   24.4700   10.1790 O.2    21  VAL21      -0.2718
     16  CB        10.9930   23.6550    8.8800 C.3    21  VAL21       0.0266
     17  CG1       12.0050   22.8260    8.1490 C.3    21  VAL21       0.0020
     18  CG2       11.1650   25.1710    8.7150 C.3    21  VAL21       0.0020
     19  N          8.0790   25.0430    8.0380 N.am   22  MET22      -0.1979
     20  CA         7.1350   26.0900    8.4460 C.3    22  MET22       0.1605
     21  C          5.7830   25.5660    8.7830 C.2    22  MET22       0.2287
     22  O          5.0640   26.2150    9.4890 O.2    22  MET22      -0.2864
     23  CB         7.0810   27.3340    7.5800 C.3    22  MET22       0.0413
     24  CG         7.6750   27.2230    6.3310 C.3    22  MET22       0.0598
     25  SD         6.4360   26.5490    5.4200 S.3    22  MET22      -0.1393
     26  CE         6.8850   27.6230    3.8240 C.3    22  MET22       0.0692
     27  N          6.0470   24.6390   12.2850 N.3    25  LEU25      -0.1245
     28  CA         6.0680   25.8520   13.1040 C.3    25  LEU25       0.1561
     29  C          4.7190   26.5390   13.2660 C.2    25  LEU25       0.2260
     30  O          4.6040   27.5120   14.0390 O.2    25  LEU25      -0.2867
     31  CB         7.0650   26.8700   12.5190 C.3    25  LEU25       0.0270
     32  CG         8.5300   26.4710   12.6330 C.3    25  LEU25       0.0019
     33  CD1        9.4270   27.4460   11.8480 C.3    25  LEU25       0.0001
     34  CD2        8.9630   26.3650   14.0830 C.3    25  LEU25       0.0001
     35  N          3.0980   28.1380   10.7640 N.3    27  VAL27      -0.1245
     36  CA         3.0140   29.3200    9.9300 C.3    27  VAL27       0.1561
     37  C          1.7830   29.2680    9.0460 C.2    27  VAL27       0.2260
     38  O          1.4430   28.2220    8.4950 O.2    27  VAL27      -0.2867
     39  CB         4.2880   29.5130    9.0420 C.3    27  VAL27       0.0252
     40  CG1        4.1740   30.7580    8.1690 C.3    27  VAL27       0.0019
     41  CG2        5.5240   29.6170    9.9170 C.3    27  VAL27       0.0019
     42  N          1.3980   32.9420    4.4540 N.3    31  THR31      -0.1218
     43  CA         2.7990   33.2720    4.6910 C.3    31  THR31       0.1862
     44  C          3.7230   32.1260    4.2350 C.2    31  THR31       0.2287
     45  O          4.8520   32.3750    3.7830 O.2    31  THR31      -0.2866
     46  CB         3.0670   33.6100    6.1620 C.3    31  THR31       0.1770
     47  OG1        2.3120   34.7730    6.5210 O.3    31  THR31      -0.2211
     48  CG2        4.5280   34.0340    6.3390 C.3    31  THR31       0.0375
     49  N          4.3000   32.5170    0.4770 N.3    34  ILE34      -0.1231
     50  CA         5.3200   33.5570    0.3170 C.3    34  ILE34       0.1692
     51  C          6.7030   33.0040    0.6510 C.2    34  ILE34       0.2592
     52  O          7.6430   33.2000   -0.1210 O.2    34  ILE34      -0.2718
     53  CB         5.0090   34.8340    1.1780 C.3    34  ILE34       0.0266
     54  CG1        3.7410   35.5330    0.6730 C.3    34  ILE34       0.0019
     55  CG2        6.1740   35.8540    1.1390 C.3    34  ILE34       0.0020
     56  CD1        3.0650   36.3950    1.7490 C.3    34  ILE34       0.0001
     57  N          6.8220   32.2910    1.7620 N.am   35  GLY35      -0.1957
     58  CA         8.0800   31.6730    2.1810 C.3    35  GLY35       0.1869
     59  C          8.6280   30.6290    1.2150 C.2    35  GLY35       0.2309
     60  O          9.8640   30.4560    1.1190 O.2    35  GLY35      -0.2863
     61  N          9.6530   33.5510   -2.2510 N.3    38  VAL38      -0.1245
     62  CA        10.5980   34.6760   -2.2550 C.3    38  VAL38       0.1561
     63  C         12.0170   34.1860   -2.0760 C.2    38  VAL38       0.2260
     64  O         12.2740   33.1790   -1.4150 O.2    38  VAL38      -0.2867
     65  CB        10.3360   35.7670   -1.1680 C.3    38  VAL38       0.0252
     66  CG1        9.0370   36.4790   -1.4360 C.3    38  VAL38       0.0019
     67  CG2       10.4040   35.1860    0.2520 C.3    38  VAL38       0.0019
     68  N         15.2390   35.8290   -0.6650 N.3    40  PRO40      -0.2116
     69  CA        15.8100   36.9680    0.0270 C.3    40  PRO40       0.1372
     70  C         17.2790   37.1700   -0.2510 C.2    40  PRO40       0.2244
     71  O         17.9790   36.2430   -0.6170 O.2    40  PRO40      -0.2868
     72  CB        15.6070   36.6000    1.5040 C.3    40  PRO40       0.0268
     73  CG        14.6270   35.5640    1.4760 C.3    40  PRO40       0.0207
     74  CD        14.9340   34.7350    0.2660 C.3    40  PRO40       0.0892
     75  N         20.5950   38.5000    2.0050 N.3    42  VAL42      -0.1245
     76  CA        21.0290   38.6090    3.3980 C.3    42  VAL42       0.1561
     77  C         22.4150   39.2910    3.4270 C.2    42  VAL42       0.2260
     78  O         23.3150   38.9410    2.6960 O.2    42  VAL42      -0.2867
     79  CB        21.0390   37.2440    4.1030 C.3    42  VAL42       0.0252
     80  CG1       21.5170   37.3530    5.5370 C.3    42  VAL42       0.0019
     81  CG2       19.6410   36.6310    4.1050 C.3    42  VAL42       0.0019
     82  N         22.6840   41.0500   10.9460 N.3    53  MET53      -0.1245
     83  CA        22.1800   40.3900    9.7540 C.3    53  MET53       0.1570
     84  C         20.9460   41.1190    9.2150 C.2    53  MET53       0.2261
     85  O         19.9670   41.2430    9.8950 O.2    53  MET53      -0.2867
     86  CB        21.8210   38.9460   10.1140 C.3    53  MET53       0.0387
     87  CG        21.3870   38.1100    8.9210 C.3    53  MET53       0.0595
     88  SD        21.0350   36.3660    9.4270 S.3    53  MET53      -0.1393
     89  CE        19.2830   36.4320    9.5140 C.3    53  MET53       0.0692
     90  N         17.9800   41.0650    6.3850 N.3    55  THR55      -0.1218
     91  CA        17.2590   40.2800    5.3760 C.3    55  THR55       0.1862
     92  C         16.3270   41.1800    4.5590 C.2    55  THR55       0.2287
     93  O         15.5160   41.8990    5.1200 O.2    55  THR55      -0.2866
     94  CB        16.4730   39.1790    6.1070 C.3    55  THR55       0.1770
     95  OG1       17.3870   38.3570    6.8640 O.3    55  THR55      -0.2211
     96  CG2       15.8380   38.1840    5.1280 C.3    55  THR55       0.0375
     97  N         13.5930   41.3360    1.2400 N.3    57  SER57      -0.1217
     98  CA        12.7500   40.6020    0.2930 C.3    57  SER57       0.1889
     99  C         11.5480   41.4630   -0.0580 C.2    57  SER57       0.2288
    100  O         11.3110   42.4920    0.5590 O.2    57  SER57      -0.2866
    101  CB        12.2870   39.2750    0.8720 C.3    57  SER57       0.2089
    102  OG        11.2970   39.4250    1.8750 O.3    57  SER57      -0.2183
    103  N          8.6630   40.6220    0.5940 N.3    59  PHE59      -0.1241
    104  CA         7.7280   40.3840    1.6810 C.3    59  PHE59       0.1605
    105  C          7.9700   41.3490    2.8210 C.2    59  PHE59       0.2264
    106  O          7.0790   42.0850    3.2110 O.2    59  PHE59      -0.2867
    107  CB         7.8650   38.9500    2.1910 C.3    59  PHE59       0.0534
    108  CG         6.9970   38.6370    3.3800 C.ar   59  PHE59      -0.0203
    109  CD1        7.5430   38.0860    4.5220 C.ar   59  PHE59      -0.0042
    110  CD2        5.6340   38.9030    3.3550 C.ar   59  PHE59      -0.0042
    111  CE1        6.7570   37.7930    5.6290 C.ar   59  PHE59      -0.0003
    112  CE2        4.8380   38.6030    4.4580 C.ar   59  PHE59      -0.0003
    113  CZ         5.4100   38.0500    5.5980 C.ar   59  PHE59      -0.0000
    114  N         10.1590   37.2070   14.3990 N.3    76  THR76      -0.1203
    115  CA        10.5210   36.5150   13.1700 C.3    76  THR76       0.1994
    116  C          9.7620   37.1530   12.0180 C.2    76  THR76       0.2619
    117  O          8.8340   37.9270   12.2390 O.2    76  THR76      -0.2717
    118  CB        10.1660   34.9920   13.2400 C.3    76  THR76       0.1784
    119  OG1        8.7500   34.8070   13.3960 O.3    76  THR76      -0.2211
    120  CG2       10.7840   34.3320   14.4530 C.3    76  THR76       0.0376
    121  N         10.1420   36.8090   10.7920 N.am   77  SER77      -0.1937
    122  CA         9.4820   37.3520    9.6020 C.3    77  SER77       0.2055
    123  C          7.9860   37.0250    9.5530 C.2    77  SER77       0.2643
    124  O          7.1780   37.8000    9.0620 O.2    77  SER77      -0.2714
    125  CB        10.1890   36.9020    8.3050 C.3    77  SER77       0.2130
    126  OG        10.5720   35.5360    8.3020 O.3    77  SER77      -0.2179
    127  N          7.6110   35.8790   10.0890 N.am   78  ASP78      -0.1971
    128  CA         6.2240   35.4620   10.0650 C.3    78  ASP78       0.1709
    129  C          5.4000   35.9770   11.2570 C.2    78  ASP78       0.2293
    130  O          4.1970   35.7350   11.3240 O.2    78  ASP78      -0.2864
    131  CB         6.1370   33.9400    9.9710 C.3    78  ASP78       0.1436
    132  CG         6.7750   33.2460   11.1290 C.2    78  ASP78       0.3671
    133  OD1        8.0070   33.3510   11.3090 O.co2  78  ASP78      -0.2456
    134  OD2        6.1120   32.5590   11.9300 O.co2  78  ASP78      -0.2456
    135  N          6.2690   35.7200   14.8780 N.3    80  ARG80      -0.1245
    136  CA         6.3730   35.0910   16.1810 C.3    80  ARG80       0.1563
    137  C          7.4250   35.8190   17.0360 C.2    80  ARG80       0.2260
    138  O          8.5280   36.1120   16.5620 O.2    80  ARG80      -0.2867
    139  CB         6.7530   33.6190   16.0370 C.3    80  ARG80       0.0307
    140  CG         5.6950   32.7330   15.3810 C.3    80  ARG80       0.0489
    141  CD         6.2860   31.7600   14.3370 C.3    80  ARG80       0.2205
    142  NE         7.3950   31.1230   14.9640 N.pl3  80  ARG80      -0.0865
    143  CZ         8.6060   30.9160   14.4890 C.cat  80  ARG80       0.5346
    144  NH1        9.0170   31.2140   13.2420 N.pl3  80  ARG80       0.1354
    145  NH2        9.4510   30.3640   15.3450 N.pl3  80  ARG80       0.1354
    146  N         16.0880   29.7370   18.1860 N.3    98  GLN98      -0.1245
    147  CA        14.9170   30.5840   18.3560 C.3    98  GLN98       0.1566
    148  C         13.8720   29.8020   19.1310 C.2    98  GLN98       0.2260
    149  O         13.3840   28.7820   18.6700 O.2    98  GLN98      -0.2867
    150  CB        14.3290   30.9960   17.0070 C.3    98  GLN98       0.0367
    151  CG        15.2400   31.8800   16.2040 C.3    98  GLN98       0.0905
    152  CD        14.6120   32.3700   14.8810 C.2    98  GLN98       0.2608
    153  OE1       13.9940   31.6060   14.1640 O.2    98  GLN98      -0.2717
    154  NE2       14.7950   33.6480   14.5760 N.am   98  GLN98      -0.0878
    155  N         13.4930   26.3930   17.0790 N.3   105  THR105     -0.1218
    156  CA        14.1380   26.3350   15.7470 C.3   105  THR105      0.1862
    157  C         15.6350   26.5290   15.9060 C.2   105  THR105      0.2287
    158  O         16.0690   27.4810   16.5330 O.2   105  THR105     -0.2866
    159  CB        13.5930   27.4330   14.8540 C.3   105  THR105      0.1770
    160  OG1       12.1660   27.3690   14.8160 O.3   105  THR105     -0.2211
    161  CG2       14.1020   27.2450   13.3580 C.3   105  THR105      0.0375
    162  N         18.9950   27.1360   13.7300 N.3   107  ILE107     -0.1245
    163  CA        19.4690   27.5590   12.3870 C.3   107  ILE107      0.1561
    164  C         20.9830   27.6240   12.3590 C.2   107  ILE107      0.2260
    165  O         21.6160   28.4850   12.9810 O.2   107  ILE107     -0.2867
    166  CB        18.8630   28.9230   11.9910 C.3   107  ILE107      0.0252
    167  CG1       17.3540   28.9260   12.1940 C.3   107  ILE107      0.0019
    168  CG2       19.2240   29.2430   10.5160 C.3   107  ILE107      0.0019
    169  CD1       16.7720   30.2890   12.4150 C.3   107  ILE107      0.0001
    170  N         24.3180   28.2250   10.1440 N.3   109  ARG109     -0.1245
    171  CA        24.8080   28.9000    8.9540 C.3   109  ARG109      0.1563
    172  C         26.2880   28.6450    8.8530 C.2   109  ARG109      0.2260
    173  O         27.0590   28.9470    9.7810 O.2   109  ARG109     -0.2867
    174  CB        24.5590   30.3890    9.0420 C.3   109  ARG109      0.0307
    175  CG        23.0850   30.7580    9.1920 C.3   109  ARG109      0.0489
    176  CD        22.8050   32.2150    9.0960 C.3   109  ARG109      0.2205
    177  NE        21.4000   32.5060    8.9020 N.pl3 109  ARG109     -0.0865
    178  CZ        20.4930   32.6620    9.8510 C.cat 109  ARG109      0.5346
    179  NH1       20.8160   32.5690   11.1250 N.pl3 109  ARG109      0.1354
    180  NH2       19.2450   32.9310    9.5070 N.pl3 109  ARG109      0.1354
    181  N         22.4730   27.0900    4.9740 N.3   118  THR118     -0.1218
    182  CA        21.6690   27.3580    6.1940 C.3   118  THR118      0.1862
    183  C         20.8190   26.1200    6.4960 C.2   118  THR118      0.2287
    184  O         19.9400   25.7820    5.6980 O.2   118  THR118     -0.2866
    185  CB        20.7890   28.5820    5.9360 C.3   118  THR118      0.1770
    186  OG1       21.6330   29.7300    5.7310 O.3   118  THR118     -0.2211
    187  CG2       19.8980   28.9460    7.1370 C.3   118  THR118      0.0375
    188  N         18.0330   24.3230    8.8070 N.3   120  VAL120     -0.1245
    189  CA        16.9750   24.7340    9.7490 C.3   120  VAL120      0.1561
    190  C         16.3070   23.4820   10.3010 C.2   120  VAL120      0.2260
    191  O         15.7570   22.6870    9.5490 O.2   120  VAL120     -0.2867
    192  CB        15.9400   25.6010    9.0530 C.3   120  VAL120      0.0252
    193  CG1       14.8360   26.0840   10.0430 C.3   120  VAL120      0.0019
    194  CG2       16.6210   26.7830    8.3600 C.3   120  VAL120      0.0019
    195  N         18.8650   25.3630    3.0690 N.3   129  ARG129     -0.1245
    196  CA        18.7830   26.4770    2.1450 C.3   129  ARG129      0.1563
    197  C         20.1690   27.0140    1.8340 C.2   129  ARG129      0.2260
    198  O         20.9100   27.4190    2.7250 O.2   129  ARG129     -0.2867
    199  CB        17.9200   27.5770    2.7360 C.3   129  ARG129      0.0307
    200  CG        16.4670   27.1690    2.8370 C.3   129  ARG129      0.0489
    201  CD        15.7130   27.8920    3.9180 C.3   129  ARG129      0.2205
    202  NE        15.5150   29.3160    3.6650 N.pl3 129  ARG129     -0.0865
    203  CZ        14.6830   29.8100    2.7560 C.cat 129  ARG129      0.5346
    204  NH1       14.5590   31.1110    2.6510 N.pl3 129  ARG129      0.1354
    205  NH2       13.9380   29.0130    1.9800 N.pl3 129  ARG129      0.1354
    206  N         22.6840   29.6870   -0.0280 N.3   131  TYR131     -0.1241
    207  CA        22.8190   31.0640   -0.4870 C.3   131  TYR131      0.1605
    208  C         24.1500   31.1920   -1.2260 C.2   131  TYR131      0.2264
    209  O         25.1250   30.5770   -0.8400 O.2   131  TYR131     -0.2867
    210  CB        22.8620   32.0240    0.7130 C.3   131  TYR131      0.0534
    211  CG        21.5680   32.1770    1.4560 C.ar  131  TYR131     -0.0201
    212  CD1       21.0850   31.1380    2.2840 C.ar  131  TYR131     -0.0009
    213  CD2       20.7980   33.3490    1.3340 C.ar  131  TYR131     -0.0009
    214  CE1       19.9040   31.2880    3.0100 C.ar  131  TYR131      0.0417
    215  CE2       19.5830   33.4940    2.0390 C.ar  131  TYR131      0.0417
    216  CZ        19.1430   32.4700    2.8540 C.ar  131  TYR131      0.1957
    217  OH        17.9700   32.6720    3.5240 O.3   131  TYR131     -0.2866
@<TRIPOS>BOND
     1    62    61    1
     2    62    63    1
     3    62    65    1
     4    63    64    2
     5    66    65    1
     6   208   209    2
     7   208   207    1
     8    65    67    1
     9    68    69    1
    10    68    74    1
    11    71    70    2
    12   207   206    1
    13   207   210    1
    14    70    69    1
    15    52    51    2
    16    99    98    1
    17    99   100    2
    18    69    72    1
    19    74    73    1
    20    98   101    1
    21    98    97    1
    22    50    49    1
    23    50    51    1
    24    50    53    1
    25   103   104    1
    26    51    57   am
    27    54    53    1
    28    54    56    1
    29   210   211    1
    30   101   102    1
    31    60    59    2
    32    55    53    1
    33    59    58    1
    34   213   211   ar
    35   213   215   ar
    36   211   212   ar
    37    73    72    1
    38   104   107    1
    39   104   105    1
    40    57    58    1
    41   197   196    1
    42   197   198    2
    43   205   203    1
    44    75    76    1
    45   215   216   ar
    46   196   199    1
    47   196   195    1
    48   107   108    1
    49   212   214   ar
    50   204   203    1
    51    78    77    2
    52   199   200    1
    53   203   202    2
    54   105   106    2
    55   200   201    1
    56   216   214   ar
    57   216   217    1
    58     1     2    1
    59     5     2    1
    60     5     6    1
    61   110   108   ar
    62   110   112   ar
    63   108   109   ar
    64    76    77    1
    65    76    79    1
    66     8     6   ar
    67     8    10   ar
    68   202   201    1
    69     2     3    1
    70    45    44    2
    71    26    25    1
    72     6     7   ar
    73    79    81    1
    74    79    80    1
    75     3     4    2
    76    44    43    1
    77    10    11   ar
    78    42    43    1
    79   112   113   ar
    80   109   111   ar
    81    92    93    2
    82    92    91    1
    83    43    46    1
    84   181   182    1
    85    96    94    1
    86     7     9   ar
    87    91    94    1
    88    91    90    1
    89    25    24    1
    90   113   111   ar
    91    11     9   ar
    92   184   183    2
    93   186   185    1
    94   185   182    1
    95   185   187    1
    96    94    95    1
    97    46    48    1
    98    46    47    1
    99   182   183    1
   100    24    23    1
   101    12    13    1
   102    23    20    1
   103    19    20    1
   104    19    14   am
   105    17    16    1
   106    40    39    1
   107   126   125    1
   108   125   122    1
   109   194   192    1
   110    20    21    1
   111    38    37    2
   112    13    16    1
   113    13    14    1
   114    18    16    1
   115    21    22    2
   116   188   189    1
   117   172   171    1
   118   172   173    2
   119   177   176    1
   120   177   178    2
   121    87    88    1
   122    87    86    1
   123   171   174    1
   124   171   170    1
   125    14    15    2
   126    39    41    1
   127    39    36    1
   128   174   175    1
   129    37    36    1
   130   192   189    1
   131   192   193    1
   132   124   123    2
   133   176   175    1
   134    84    83    1
   135    84    85    2
   136    88    89    1
   137   180   178    1
   138   191   190    2
   139   123   122    1
   140   123   127   am
   141   122   121    1
   142   189   190    1
   143    83    86    1
   144    83    82    1
   145   178   179    1
   146    36    35    1
   147   131   128    1
   148   131   132    1
   149   128   127    1
   150   128   129    1
   151   168   166    1
   152   121   116   am
   153   132   133   ar
   154   132   134   ar
   155   129   130    2
   156    33    32    1
   157   166   167    1
   158   166   163    1
   159   116   117    2
   160   116   115    1
   161   167   169    1
   162    27    28    1
   163   164   163    1
   164   164   165    2
   165   163   162    1
   166    31    32    1
   167    31    28    1
   168    32    34    1
   169    28    29    1
   170   115   118    1
   171   115   114    1
   172   118   119    1
   173   118   120    1
   174   144   143    1
   175    29    30    2
   176   161   159    1
   177   153   152    2
   178   141   142    1
   179   141   140    1
   180   143   142    2
   181   143   145    1
   182   154   152   am
   183   160   159    1
   184   159   156    1
   185   135   136    1
   186   152   151    1
   187   140   139    1
   188   156   157    1
   189   156   155    1
   190   157   158    2
   191   139   136    1
   192   136   137    1
   193   151   150    1
   194   138   137    2
   195   150   147    1
   196   146   147    1
   197   147   148    1
   198   149   148    2
