@<TRIPOS>MOLECULE
tmp/1vyqB00.pdb
 119 113 0 0 0
SMALL
GASTEIGER

@<TRIPOS>ATOM
      1  N         34.8530    5.6030    9.7350 N.3    46  PHE46      -0.1241
      2  CA        34.0040    6.1480    8.6930 C.3    46  PHE46       0.1605
      3  C         34.8430    7.0720    7.7990 C.2    46  PHE46       0.2264
      4  O         35.4510    8.0230    8.2660 O.2    46  PHE46      -0.2867
      5  CB        32.8110    6.8520    9.2970 C.3    46  PHE46       0.0534
      6  CG        32.0030    5.9480   10.1510 C.ar   46  PHE46      -0.0203
      7  CD1       32.3090    5.7850   11.4880 C.ar   46  PHE46      -0.0042
      8  CD2       31.0030    5.1660    9.5960 C.ar   46  PHE46      -0.0042
      9  CE1       31.6010    4.9020   12.2700 C.ar   46  PHE46      -0.0003
     10  CE2       30.2850    4.2890   10.3770 C.ar   46  PHE46      -0.0003
     11  CZ        30.5830    4.1500   11.7110 C.ar   46  PHE46      -0.0000
     12  N         35.0420    9.4380    4.4550 N.3    48  LYS48      -0.1245
     13  CA        34.0630   10.2990    3.7640 C.3    48  LYS48       0.1561
     14  C         34.5160   10.5130    2.3030 C.2    48  LYS48       0.2260
     15  O         35.6690   10.8300    2.0390 O.2    48  LYS48      -0.2867
     16  CB        33.8930   11.6320    4.5190 C.3    48  LYS48       0.0271
     17  CG        34.1510   11.6530    6.0030 C.3    48  LYS48       0.0035
     18  CD        32.9320   11.1770    6.7460 C.3    48  LYS48       0.0206
     19  CE        33.2380   11.3350    8.2250 C.3    48  LYS48       0.1093
     20  NZ        32.1030   10.9240    9.0280 N.3    48  LYS48      -0.1314
     21  N         26.3610    0.5380   -2.5360 N.3    74  LEU74      -0.1245
     22  CA        27.8040    0.6930   -2.4490 C.3    74  LEU74       0.1561
     23  C         28.4620   -0.6740   -2.1880 C.2    74  LEU74       0.2260
     24  O         28.2980   -1.2290   -1.1270 O.2    74  LEU74      -0.2867
     25  CB        28.1380    1.6620   -1.3110 C.3    74  LEU74       0.0270
     26  CG        29.6110    2.0520   -1.1530 C.3    74  LEU74       0.0019
     27  CD1       29.9930    3.0250   -2.2480 C.3    74  LEU74       0.0001
     28  CD2       29.8540    2.6810    0.1970 C.3    74  LEU74       0.0001
     29  N         34.1590   -3.8630    4.2420 N.3    87  LEU87      -0.1245
     30  CA        33.0050   -2.9720    4.3930 C.3    87  LEU87       0.1561
     31  C         32.1640   -3.5840    5.5170 C.2    87  LEU87       0.2260
     32  O         31.6960   -4.6820    5.4160 O.2    87  LEU87      -0.2867
     33  CB        32.2180   -2.7620    3.0760 C.3    87  LEU87       0.0270
     34  CG        31.3800   -1.4690    2.9590 C.3    87  LEU87       0.0019
     35  CD1       32.2140   -0.2330    2.6760 C.3    87  LEU87       0.0001
     36  CD2       30.3210   -1.5410    1.8900 C.3    87  LEU87       0.0001
     37  N         29.2000   -2.9440    6.9550 N.3    89  ASN89      -0.1240
     38  CA        27.8010   -3.2630    6.6360 C.3    89  ASN89       0.1653
     39  C         27.6180   -4.0500    5.3380 C.2    89  ASN89       0.2266
     40  O         26.5110   -4.1330    4.8270 O.2    89  ASN89      -0.2867
     41  CB        26.9590   -1.9770    6.6230 C.3    89  ASN89       0.1155
     42  CG        27.4540   -0.9550    5.6200 C.2    89  ASN89       0.2627
     43  OD1       26.6800   -0.1180    5.1400 O.2    89  ASN89      -0.2716
     44  ND2       28.7360   -1.0370    5.2720 N.am   89  ASN89      -0.0877
     45  N         26.5420   -1.3010    1.2820 N.3    92  GLY92      -0.1210
     46  CA        25.7540   -0.1600    1.6790 C.3    92  GLY92       0.1956
     47  C         24.5350   -0.0770    0.7990 C.2    92  GLY92       0.2612
     48  O         24.6230   -0.3450   -0.4110 O.2    92  GLY92      -0.2717
     49  N         23.4010    0.2750    1.3970 N.am   93  LEU93      -0.1965
     50  CA        22.1880    0.4420    0.6430 C.3    93  LEU93       0.1728
     51  C         21.7910    1.9210    0.7600 C.2    93  LEU93       0.2616
     52  O         21.6350    2.4720    1.8490 O.2    93  LEU93      -0.2715
     53  CB        21.0900   -0.4530    1.1870 C.3    93  LEU93       0.0311
     54  CG        19.7170   -0.0290    0.6550 C.3    93  LEU93       0.0022
     55  CD1       19.6510   -0.3000   -0.7820 C.3    93  LEU93       0.0001
     56  CD2       18.6160   -0.7010    1.3530 C.3    93  LEU93       0.0001
     57  N         21.6300    2.5700   -0.3670 N.am   94  ILE94      -0.1963
     58  CA        21.3620    3.9930   -0.3290 C.3    94  ILE94       0.1727
     59  C         20.0210    4.2450   -0.9410 C.2    94  ILE94       0.2616
     60  O         19.7440    3.8990   -2.0950 O.2    94  ILE94      -0.2715
     61  CB        22.4190    4.7780   -1.0550 C.3    94  ILE94       0.0290
     62  CG1       23.7860    4.5610   -0.3940 C.3    94  ILE94       0.0022
     63  CG2       22.0160    6.2920   -1.0860 C.3    94  ILE94       0.0023
     64  CD1       24.9150    4.5970   -1.3580 C.3    94  ILE94       0.0001
     65  N         19.2060    4.8980   -0.1520 N.am   95  ASP95      -0.1971
     66  CA        17.8030    4.9690   -0.4000 C.3    95  ASP95       0.1709
     67  C         17.5590    6.1640   -1.3580 C.2    95  ASP95       0.2293
     68  O         18.4460    7.0040   -1.5740 O.2    95  ASP95      -0.2864
     69  CB        17.0670    4.9470    0.9750 C.3    95  ASP95       0.1436
     70  CG        18.0810    5.0720    2.1540 C.2    95  ASP95       0.3671
     71  OD1       18.0230    4.1780    3.0420 O.co2  95  ASP95      -0.2456
     72  OD2       18.9900    5.9360    2.2560 O.co2  95  ASP95      -0.2456
     73  N         18.2980    9.9290    0.0820 N.3    98  TYR98      -0.1241
     74  CA        19.5110   10.3600    0.7390 C.3    98  TYR98       0.1605
     75  C         20.0140   11.5290   -0.0770 C.2    98  TYR98       0.2264
     76  O         19.9220   11.5340   -1.3250 O.2    98  TYR98      -0.2867
     77  CB        20.5470    9.2580    0.8330 C.3    98  TYR98       0.0534
     78  CG        21.6540    9.5730    1.8060 C.ar   98  TYR98      -0.0201
     79  CD1       21.3950    9.8860    3.1530 C.ar   98  TYR98      -0.0009
     80  CD2       22.9730    9.5540    1.3840 C.ar   98  TYR98      -0.0009
     81  CE1       22.4500   10.1860    4.0430 C.ar   98  TYR98       0.0417
     82  CE2       23.9990    9.8270    2.2450 C.ar   98  TYR98       0.0417
     83  CZ        23.7470   10.1480    3.5690 C.ar   98  TYR98       0.1957
     84  OH        24.8680   10.3850    4.3620 O.3    98  TYR98      -0.2866
     85  N         26.3300   13.1430    2.3090 N.3   101  GLU101     -0.1231
     86  CA        27.6070   12.6990    1.7660 C.3   101  GLU101      0.1699
     87  C         27.7270   11.1640    1.8260 C.2   101  GLU101      0.2592
     88  O         27.4310   10.5580    2.8630 O.2   101  GLU101     -0.2718
     89  CB        28.7650   13.3470    2.5480 C.3   101  GLU101      0.0402
     90  CG        30.1520   12.9680    2.0280 C.3   101  GLU101      0.1161
     91  CD        31.3070   13.5350    2.8580 C.2   101  GLU101      0.3649
     92  OE1       32.5050   13.2690    2.5430 O.co2 101  GLU101     -0.2457
     93  OE2       31.0280   14.2450    3.8440 O.co2 101  GLU101     -0.2457
     94  N         28.1670   10.5630    0.7180 N.am  102  ILE102     -0.1966
     95  CA        28.4520    9.1490    0.6480 C.3   102  ILE102      0.1727
     96  C         29.5970    8.8840    1.5600 C.2   102  ILE102      0.2616
     97  O         30.6620    9.4450    1.3490 O.2   102  ILE102     -0.2715
     98  CB        28.8970    8.6970   -0.7410 C.3   102  ILE102      0.0290
     99  CG1       27.8010    8.8650   -1.8180 C.3   102  ILE102      0.0022
    100  CG2       29.3430    7.2490   -0.6690 C.3   102  ILE102      0.0023
    101  CD1       26.3880    8.6840   -1.3830 C.3   102  ILE102      0.0001
    102  N         29.3830    8.0070    2.5510 N.am  103  ILE103     -0.1963
    103  CA        30.4300    7.6090    3.4810 C.3   103  ILE103      0.1727
    104  C         30.6560    6.0680    3.4520 C.2   103  ILE103      0.2616
    105  O         29.7360    5.2990    3.2460 O.2   103  ILE103     -0.2715
    106  CB        30.0400    8.1090    4.8830 C.3   103  ILE103      0.0290
    107  CG1       30.0290    9.6610    4.9210 C.3   103  ILE103      0.0022
    108  CG2       30.9630    7.5440    5.9500 C.3   103  ILE103      0.0023
    109  CD1       28.8430   10.2760    5.7380 C.3   103  ILE103      0.0001
    110  N         31.8900    5.6470    3.6930 N.am  104  ALA104     -0.1963
    111  CA        32.2720    4.2530    3.6140 C.3   104  ALA104      0.1728
    112  C         32.8390    3.7520    4.9350 C.2   104  ALA104      0.2616
    113  O         33.9730    4.0860    5.2940 O.2   104  ALA104     -0.2715
    114  CB        33.2930    4.0660    2.5320 C.3   104  ALA104      0.0334
    115  N         32.0530    2.9350    5.6300 N.am  105  ALA105     -0.1977
    116  CA        32.4560    2.2990    6.8890 C.3   105  ALA105      0.1597
    117  C         33.4370    1.1570    6.6770 C.2   105  ALA105      0.2287
    118  O         33.0090    0.0770    6.3600 O.2   105  ALA105     -0.2864
    119  CB        31.2150    1.7620    7.6200 C.3   105  ALA105      0.0319
@<TRIPOS>BOND
     1    21    22    1
     2    22    23    1
     3    22    25    1
     4    27    26    1
     5    23    24    2
     6    60    59    2
     7    99   101    1
     8    99    98    1
     9    68    67    2
    10    67    66    1
    11    64    62    1
    12    76    75    2
    13    25    26    1
    14    26    28    1
    15    63    61    1
    16    61    62    1
    17    61    58    1
    18    59    58    1
    19    59    65   am
    20    55    54    1
    21    98   100    1
    22    98    95    1
    23    48    47    2
    24    66    65    1
    25    66    69    1
    26    57    58    1
    27    57    51   am
    28    75    74    1
    29    73    74    1
    30    50    51    1
    31    50    53    1
    32    50    49    1
    33    95    94    1
    34    95    96    1
    35    54    53    1
    36    54    56    1
    37    94    87   am
    38    74    77    1
    39    51    52    2
    40    47    49   am
    41    47    46    1
    42    77    78    1
    43    69    70    1
    44    45    46    1
    45    97    96    2
    46    80    78   ar
    47    80    82   ar
    48    96   102   am
    49    86    87    1
    50    86    85    1
    51    86    89    1
    52    78    79   ar
    53    87    88    2
    54    36    34    1
    55    90    89    1
    56    90    91    1
    57    15    14    2
    58    70    72   ar
    59    70    71   ar
    60    82    83   ar
    61    14    13    1
    62   114   111    1
    63    92    91   ar
    64   102   103    1
    65    35    34    1
    66    91    93   ar
    67    34    33    1
    68    33    30    1
    69    79    81   ar
    70   105   104    2
    71   104   103    1
    72   104   110   am
    73   103   106    1
    74    83    81   ar
    75    83    84    1
    76   111   110    1
    77   111   112    1
    78    13    12    1
    79    13    16    1
    80    29    30    1
    81    30    31    1
    82    16    17    1
    83    40    39    2
    84   106   107    1
    85   106   108    1
    86   107   109    1
    87   112   113    2
    88   112   115   am
    89    43    42    2
    90    44    42   am
    91    39    38    1
    92    32    31    2
    93    42    41    1
    94   115   116    1
    95    17    18    1
    96   118   117    2
    97    41    38    1
    98    38    37    1
    99   117   116    1
   100    18    19    1
   101   116   119    1
   102     3     4    2
   103     3     2    1
   104    19    20    1
   105     2     5    1
   106     2     1    1
   107     5     6    1
   108     8     6   ar
   109     8    10   ar
   110     6     7   ar
   111    10    11   ar
   112     7     9   ar
   113    11     9   ar
