@<TRIPOS>MOLECULE
tmp/1vyrA01.pdb
 134 128 0 0 0
SMALL
GASTEIGER

@<TRIPOS>ATOM
      1  N         24.7830    3.8740   26.4450 N.3    23  PRO23      -0.2116
      2  CA        24.5440    3.5900   25.0160 C.3    23  PRO23       0.1372
      3  C         24.9990    4.7760   24.1730 C.2    23  PRO23       0.2244
      4  O         24.6360    5.9390   24.4390 O.2    23  PRO23      -0.2868
      5  CB        23.0170    3.3660   24.9450 C.3    23  PRO23       0.0268
      6  CG        22.4660    4.1620   26.1170 C.3    23  PRO23       0.0207
      7  CD        23.5190    4.0060   27.2130 C.3    23  PRO23       0.0892
      8  N         25.4390    5.8060   20.0740 N.3    25  THR25      -0.1218
      9  CA        25.3470    5.7010   18.6080 C.3    25  THR25       0.1862
     10  C         26.6480    6.2400   17.9920 C.2    25  THR25       0.2287
     11  O         27.0580    7.3680   18.2370 O.2    25  THR25      -0.2866
     12  CB        24.1270    6.5230   18.1520 C.3    25  THR25       0.1770
     13  OG1       22.9220    5.8330   18.5430 O.3    25  THR25      -0.2211
     14  CG2       24.0860    6.7180   16.6510 C.3    25  THR25       0.0375
     15  N         27.4570    5.0100   14.4470 N.3    27  LEU27      -0.1245
     16  CA        27.1490    5.0570   13.0160 C.3    27  LEU27       0.1561
     17  C         28.2470    4.4920   12.1290 C.2    27  LEU27       0.2260
     18  O         28.5610    5.0420   11.0390 O.2    27  LEU27      -0.2867
     19  CB        26.6870    6.4390   12.5540 C.3    27  LEU27       0.0270
     20  CG        25.5180    7.0210   13.3670 C.3    27  LEU27       0.0019
     21  CD1       25.1120    8.4000   12.8260 C.3    27  LEU27       0.0001
     22  CD2       24.3040    6.0800   13.3690 C.3    27  LEU27       0.0001
     23  N         22.2030    2.2250   20.3300 N.3    57  ALA57      -0.1245
     24  CA        20.8270    1.9270   19.9430 C.3    57  ALA57       0.1562
     25  C         20.8140    1.0680   18.6710 C.2    57  ALA57       0.2260
     26  O         21.5010    1.3280   17.6770 O.2    57  ALA57      -0.2867
     27  CB        20.0890    3.2350   19.6890 C.3    57  ALA57       0.0290
     28  N         18.8630    6.4730   11.4580 N.3    67  TYR67      -0.1241
     29  CA        20.1770    7.0120   11.1060 C.3    67  TYR67       0.1605
     30  C         20.9160    5.9840   10.2290 C.2    67  TYR67       0.2264
     31  O         20.9280    4.7910   10.5890 O.2    67  TYR67      -0.2867
     32  CB        21.0300    7.2490   12.3310 C.3    67  TYR67       0.0534
     33  CG        20.4830    8.1850   13.3550 C.ar   67  TYR67      -0.0201
     34  CD1       19.7120    7.7350   14.4040 C.ar   67  TYR67      -0.0009
     35  CD2       20.6880    9.5510   13.3260 C.ar   67  TYR67      -0.0009
     36  CE1       19.1930    8.5930   15.3560 C.ar   67  TYR67       0.0417
     37  CE2       20.1640   10.3900   14.2590 C.ar   67  TYR67       0.0417
     38  CZ        19.4040    9.9290   15.3140 C.ar   67  TYR67       0.1957
     39  OH        18.9010   10.7920   16.2300 O.3    67  TYR67      -0.2866
     40  N         20.7500   -2.1130   23.6070 N.3    99  GLN99      -0.1245
     41  CA        19.6710   -1.1060   23.6420 C.3    99  GLN99       0.1566
     42  C         18.8280   -1.2570   22.3710 C.2    99  GLN99       0.2260
     43  O         19.3830   -1.1370   21.2520 O.2    99  GLN99      -0.2867
     44  CB        20.2350    0.3180   23.7720 C.3    99  GLN99       0.0367
     45  CG        19.0830    1.2850   23.9820 C.3    99  GLN99       0.0905
     46  CD        19.5030    2.7570   23.9760 C.2    99  GLN99       0.2608
     47  OE1       20.0320    3.2470   22.9550 O.2    99  GLN99      -0.2717
     48  NE2       19.2180    3.4710   25.0380 N.am   99  GLN99      -0.0878
     49  N         15.7080   -0.0500   19.9510 N.3   101  TRP101     -0.1241
     50  CA        14.9790    1.1480   19.6450 C.3   101  TRP101      0.1605
     51  C         14.1150    0.9870   18.3840 C.2   101  TRP101      0.2264
     52  O         14.3720    0.1930   17.4830 O.2   101  TRP101     -0.2867
     53  CB        15.6610    2.5440   19.5350 C.3   101  TRP101      0.0550
     54  CG        16.6010    2.7390   18.3550 C.ar  101  TRP101      0.0003
     55  CD1       16.9770    1.8000   17.4210 C.ar  101  TRP101      0.0946
     56  CD2       17.3710    3.9180   18.0650 C.ar  101  TRP101      0.0152
     57  NE1       17.9390    2.3090   16.5810 N.ar  101  TRP101     -0.2442
     58  CE2       18.2280    3.5980   16.9750 C.ar  101  TRP101      0.0810
     59  CE3       17.4820    5.1750   18.6600 C.ar  101  TRP101      0.0012
     60  CZ2       19.1850    4.4920   16.5000 C.ar  101  TRP101      0.0191
     61  CZ3       18.4440    6.0750   18.1710 C.ar  101  TRP101      0.0001
     62  CH2       19.2620    5.7240   17.1040 C.ar  101  TRP101      0.0015
     63  N         14.5780    1.3490   24.6370 N.3   180  HIS180     -0.1241
     64  CA        14.8480    2.7770   24.4860 C.3   180  HIS180      0.1621
     65  C         13.5360    3.5560   24.5290 C.2   180  HIS180      0.2264
     66  O         12.8490    3.7760   23.5060 O.2   180  HIS180     -0.2867
     67  CB        15.5910    3.0720   23.1700 C.3   180  HIS180      0.0745
     68  CG        16.2150    4.4280   23.1660 C.ar  180  HIS180      0.0817
     69  ND1       15.8080    5.4440   24.0290 N.ar  180  HIS180     -0.2268
     70  CD2       17.2910    4.8740   22.4010 C.ar  180  HIS180      0.1154
     71  CE1       16.6570    6.4570   23.7660 C.ar  180  HIS180      0.1986
     72  NE2       17.5330    6.1770   22.7930 N.ar  180  HIS180     -0.2212
     73  N         14.4880   10.1360   24.8960 N.3   183  HIS183     -0.1241
     74  CA        15.1690   10.9560   23.8940 C.3   183  HIS183      0.1621
     75  C         14.3550   11.2350   22.6410 C.2   183  HIS183      0.2264
     76  O         14.9140   11.4770   21.5470 O.2   183  HIS183     -0.2867
     77  CB        16.5730   10.3840   23.5240 C.3   183  HIS183      0.0745
     78  CG        17.4770   10.3230   24.7170 C.ar  183  HIS183      0.0817
     79  ND1       18.6280    9.5760   24.6890 N.ar  183  HIS183     -0.2268
     80  CD2       17.4000   10.8940   25.9480 C.ar  183  HIS183      0.1154
     81  CE1       19.2240    9.7380   25.8700 C.ar  183  HIS183      0.1986
     82  NE2       18.5380   10.5360   26.6710 N.ar  183  HIS183     -0.2212
     83  N         12.4350    9.2460   20.8080 N.3   185  TYR185     -0.1241
     84  CA        12.2290    8.1590   19.8670 C.3   185  TYR185      0.1605
     85  C         10.8160    7.5650   20.0290 C.2   185  TYR185      0.2264
     86  O          9.9750    8.2030   20.6900 O.2   185  TYR185     -0.2867
     87  CB        13.4030    7.1510   19.9050 C.3   185  TYR185      0.0534
     88  CG        14.6960    7.8610   19.5210 C.ar  185  TYR185     -0.0201
     89  CD1       14.9090    8.3460   18.2290 C.ar  185  TYR185     -0.0009
     90  CD2       15.6880    8.0830   20.4690 C.ar  185  TYR185     -0.0009
     91  CE1       16.0650    9.0080   17.8780 C.ar  185  TYR185      0.0417
     92  CE2       16.8250    8.7650   20.1410 C.ar  185  TYR185      0.0417
     93  CZ        17.0350    9.2190   18.8530 C.ar  185  TYR185      0.1957
     94  OH        18.1910    9.9130   18.5730 O.3   185  TYR185     -0.2866
     95  N         15.3760    2.5350   29.4930 N.3   232  ARG232     -0.1245
     96  CA        15.9010    3.9040   29.5990 C.3   232  ARG232      0.1563
     97  C         14.7430    4.8980   29.3820 C.2   232  ARG232      0.2260
     98  O         14.0020    4.7880   28.3860 O.2   232  ARG232     -0.2867
     99  CB        17.0150    4.1650   28.6110 C.3   232  ARG232      0.0307
    100  CG        17.8430    5.3940   29.0350 C.3   232  ARG232      0.0489
    101  CD        19.0820    5.6060   28.2170 C.3   232  ARG232      0.2205
    102  NE        20.1060    6.3330   28.9960 N.pl3 232  ARG232     -0.0865
    103  CZ        21.1260    6.9980   28.5050 C.cat 232  ARG232      0.5346
    104  NH1       21.2400    7.2790   27.2300 N.pl3 232  ARG232      0.1354
    105  NH2       22.0850    7.4150   29.3590 N.pl3 232  ARG232      0.1354
    106  N         15.7240   16.3870   22.5520 N.3   240  GLN240     -0.1245
    107  CA        15.5570   16.3380   21.1090 C.3   240  GLN240      0.1566
    108  C         14.1890   16.8530   20.6670 C.2   240  GLN240      0.2260
    109  O         13.4740   16.3100   19.8330 O.2   240  GLN240     -0.2867
    110  CB        15.8160   14.9010   20.5580 C.3   240  GLN240      0.0367
    111  CG        17.2350   14.4710   20.9030 C.3   240  GLN240      0.0905
    112  CD        17.8650   13.4350   20.0330 C.2   240  GLN240      0.2608
    113  OE1       18.7790   13.7070   19.2920 O.2   240  GLN240     -0.2717
    114  NE2       17.3600   12.2210   20.0710 N.am  240  GLN240     -0.0878
    115  N         22.0540   16.6200   25.9470 N.3   274  LEU274     -0.1245
    116  CA        23.4030   17.1300   25.8410 C.3   274  LEU274      0.1561
    117  C         23.4380   18.6730   25.9770 C.2   274  LEU274      0.2260
    118  O         24.4480   19.2430   26.3950 O.2   274  LEU274     -0.2867
    119  CB        24.0490   16.7440   24.5000 C.3   274  LEU274      0.0270
    120  CG        24.2560   15.2440   24.2840 C.3   274  LEU274      0.0019
    121  CD1       24.9890   14.9760   22.9730 C.3   274  LEU274      0.0001
    122  CD2       25.0640   14.5960   25.3940 C.3   274  LEU274      0.0001
    123  N         30.6350   10.3930   15.2130 N.3   350  TYR350     -0.1241
    124  CA        29.7070    9.7100   14.2540 C.3   350  TYR350      0.1605
    125  C         30.3660    9.3940   12.9520 C.2   350  TYR350      0.2264
    126  O         30.9470   10.2840   12.2840 O.2   350  TYR350     -0.2867
    127  CB        28.5100   10.6270   13.9550 C.3   350  TYR350      0.0534
    128  CG        27.7570   11.0200   15.1950 C.ar  350  TYR350     -0.0201
    129  CD1       26.9980   10.0930   15.8970 C.ar  350  TYR350     -0.0009
    130  CD2       27.7900   12.2970   15.6570 C.ar  350  TYR350     -0.0009
    131  CE1       26.2890   10.4720   17.0370 C.ar  350  TYR350      0.0417
    132  CE2       27.0670   12.7100   16.7870 C.ar  350  TYR350      0.0417
    133  CZ        26.3230   11.7690   17.4880 C.ar  350  TYR350      0.1957
    134  OH        25.6250   12.1880   18.6170 O.3   350  TYR350     -0.2866
@<TRIPOS>BOND
     1    30    31    2
     2    30    29    1
     3    18    17    2
     4    29    28    1
     5    29    32    1
     6    17    16    1
     7   126   125    2
     8    32    33    1
     9    19    16    1
    10    19    20    1
    11    21    20    1
    12   125   124    1
    13    16    15    1
    14    35    33   ar
    15    35    37   ar
    16    33    34   ar
    17    20    22    1
    18   127   124    1
    19   127   128    1
    20   124   123    1
    21    37    38   ar
    22    34    36   ar
    23   128   130   ar
    24   128   129   ar
    25    38    36   ar
    26    38    39    1
    27   130   132   ar
    28   129   131   ar
    29    60    58   ar
    30    60    62   ar
    31    57    58   ar
    32    57    55   ar
    33    14    12    1
    34   132   133   ar
    35    58    56   ar
    36   131   133   ar
    37    62    61   ar
    38    55    54   ar
    39    52    51    2
    40   133   134    1
    41    26    25    2
    42    91    89   ar
    43    91    93   ar
    44    10    11    2
    45    10     9    1
    46    56    54   ar
    47    56    59   ar
    48    12    13    1
    49    12     9    1
    50    61    59   ar
    51    89    88   ar
    52    54    53    1
    53    51    50    1
    54    94    93    1
    55     9     8    1
    56    25    24    1
    57    93    92   ar
    58   113   112    2
    59    88    87    1
    60    88    90   ar
    61    53    50    1
    62    50    49    1
    63    27    24    1
    64   109   108    2
    65    84    87    1
    66    84    85    1
    67    84    83    1
    68    24    23    1
    69    85    86    2
    70   112   114   am
    71   112   111    1
    72    92    90   ar
    73   110   111    1
    74   110   107    1
    75   108   107    1
    76   107   106    1
    77    43    42    2
    78    76    75    2
    79    42    41    1
    80    70    72   ar
    81    70    68   ar
    82    75    74    1
    83    72    71   ar
    84    47    46    2
    85   121   120    1
    86    68    67    1
    87    68    69   ar
    88    67    64    1
    89    66    65    2
    90    77    74    1
    91    77    78    1
    92    40    41    1
    93    41    44    1
    94    71    69   ar
    95    44    45    1
    96    74    73    1
    97    46    45    1
    98    46    48   am
    99     3     4    2
   100     3     2    1
   101   120   119    1
   102   120   122    1
   103    64    65    1
   104    64    63    1
   105   119   116    1
   106    79    78   ar
   107    79    81   ar
   108    78    80   ar
   109     5     2    1
   110     5     6    1
   111     2     1    1
   112   116   115    1
   113   116   117    1
   114    81    82   ar
   115    80    82   ar
   116   117   118    2
   117     6     7    1
   118     1     7    1
   119   104   103    1
   120   101   102    1
   121   101   100    1
   122    98    97    2
   123   103   102    2
   124   103   105    1
   125    99   100    1
   126    99    96    1
   127    97    96    1
   128    95    96    1
