@<TRIPOS>MOLECULE
tmp/1vywA00.pdb
 159 152 0 0 0
SMALL
GASTEIGER

@<TRIPOS>ATOM
      1  N         -3.0500  197.9060  109.3570 N.3    12  GLU12      -0.1231
      2  CA        -2.6910  198.0570  110.7630 C.3    12  GLU12       0.1699
      3  C         -3.9330  198.3310  111.6020 C.2    12  GLU12       0.2592
      4  O         -4.9740  198.7440  111.0770 O.2    12  GLU12      -0.2718
      5  CB        -1.6500  199.1720  110.9750 C.3    12  GLU12       0.0402
      6  CG        -2.0200  200.5270  110.4130 C.3    12  GLU12       0.1161
      7  CD        -0.9710  201.5860  110.7140 C.2    12  GLU12       0.3649
      8  OE1       -0.3630  201.5340  111.8070 O.co2  12  GLU12      -0.2457
      9  OE2       -0.7600  202.4840  109.8670 O.co2  12  GLU12      -0.2457
     10  N         -3.8190  198.0830  112.9030 N.am   13  LYS13      -0.1966
     11  CA        -4.9300  198.2870  113.8200 C.3    13  LYS13       0.1728
     12  C         -5.1060  199.7760  114.0950 C.2    13  LYS13       0.2616
     13  O         -4.1370  200.4790  114.3940 O.2    13  LYS13      -0.2715
     14  CB        -4.6740  197.5140  115.1200 C.3    13  LYS13       0.0311
     15  CG        -5.8800  197.4290  116.0480 C.3    13  LYS13       0.0038
     16  CD        -5.8720  196.1430  116.8810 C.3    13  LYS13       0.0206
     17  CE        -4.7500  196.1140  117.9110 C.3    13  LYS13       0.1093
     18  NZ        -4.9930  197.0750  119.0250 N.3    13  LYS13      -0.1314
     19  N         -6.3390  200.2550  113.9640 N.am   14  ILE14      -0.1977
     20  CA        -6.6520  201.6560  114.2110 C.3    14  ILE14       0.1596
     21  C         -7.0960  201.8600  115.6490 C.2    14  ILE14       0.2287
     22  O         -6.6590  202.8010  116.3140 O.2    14  ILE14      -0.2864
     23  CB        -7.8000  202.1690  113.3020 C.3    14  ILE14       0.0276
     24  CG1       -7.2710  202.4940  111.9060 C.3    14  ILE14       0.0022
     25  CG2       -8.4500  203.4120  113.9310 C.3    14  ILE14       0.0022
     26  CD1       -8.3540  202.9880  110.9590 C.3    14  ILE14       0.0001
     27  N        -11.0900  197.8350  114.9130 N.3    22  VAL22      -0.1245
     28  CA       -11.1000  198.5720  113.6550 C.3    22  VAL22       0.1561
     29  C         -9.6880  198.5700  113.0530 C.2    22  VAL22       0.2260
     30  O         -8.7180  198.9740  113.7090 O.2    22  VAL22      -0.2867
     31  CB       -11.5520  200.0290  113.8570 C.3    22  VAL22       0.0252
     32  CG1      -11.6410  200.7340  112.5170 C.3    22  VAL22       0.0019
     33  CG2      -12.9010  200.0610  114.5610 C.3    22  VAL22       0.0019
     34  N         -7.0960  199.4880  109.5930 N.3    24  LYS24      -0.1245
     35  CA        -6.9440  200.2770  108.3800 C.3    24  LYS24       0.1561
     36  C         -6.7240  199.1540  107.3880 C.2    24  LYS24       0.2260
     37  O         -5.9910  198.2140  107.6800 O.2    24  LYS24      -0.2867
     38  CB        -5.6910  201.1350  108.4310 C.3    24  LYS24       0.0271
     39  CG        -5.4230  201.9250  107.1420 C.3    24  LYS24       0.0035
     40  CD        -4.1700  202.7700  107.3050 C.3    24  LYS24       0.0206
     41  CE        -3.8460  203.6000  106.0830 C.3    24  LYS24       0.1093
     42  NZ        -2.5870  204.3860  106.3310 N.3    24  LYS24      -0.1314
     43  N        -11.4190  201.6910  106.4200 N.3    35  ALA35      -0.1245
     44  CA       -11.3690  201.3480  107.8310 C.3    35  ALA35       0.1562
     45  C        -12.3450  200.1850  107.9660 C.2    35  ALA35       0.2260
     46  O        -13.5100  200.3020  107.5990 O.2    35  ALA35      -0.2867
     47  CB       -11.8190  202.5250  108.6930 C.3    35  ALA35       0.0290
     48  N        -14.2680  197.7380  110.4770 N.3    37  LYS37      -0.1245
     49  CA       -14.6450  197.4910  111.8610 C.3    37  LYS37       0.1561
     50  C        -15.1110  196.0430  111.9140 C.2    37  LYS37       0.2260
     51  O        -16.1320  195.6880  111.3300 O.2    37  LYS37      -0.2867
     52  CB       -15.7580  198.4390  112.3210 C.3    37  LYS37       0.0271
     53  CG       -16.1850  198.2140  113.7760 C.3    37  LYS37       0.0035
     54  CD       -16.5410  199.5170  114.5050 C.3    37  LYS37       0.0206
     55  CE       -17.7270  200.2540  113.8750 C.3    37  LYS37       0.1093
     56  NZ       -18.0550  201.5360  114.5770 N.3    37  LYS37      -0.1314
     57  N        -19.2400  210.2970  108.4120 N.3    68  VAL68      -0.1245
     58  CA       -18.4400  209.2010  107.9040 C.3    68  VAL68       0.1561
     59  C        -19.2590  208.2510  107.0160 C.2    68  VAL68       0.2260
     60  O        -20.3780  207.8580  107.3560 O.2    68  VAL68      -0.2867
     61  CB       -17.7890  208.4230  109.0660 C.3    68  VAL68       0.0252
     62  CG1      -18.8370  207.6310  109.8300 C.3    68  VAL68       0.0019
     63  CG2      -16.6760  207.5210  108.5250 C.3    68  VAL68       0.0019
     64  N        -15.7390  201.3490  106.2420 N.3    84  PHE84      -0.1227
     65  CA       -15.8730  202.8080  106.2260 C.3    84  PHE84       0.1736
     66  C        -14.7900  203.4950  105.4000 C.2    84  PHE84       0.2595
     67  O        -13.7140  202.9460  105.1730 O.2    84  PHE84      -0.2718
     68  CB       -15.7420  203.4050  107.6430 C.3    84  PHE84       0.0547
     69  CG       -16.8050  202.9780  108.6140 C.ar   84  PHE84      -0.0202
     70  CD1      -16.6560  201.8170  109.3670 C.ar   84  PHE84      -0.0042
     71  CD2      -17.9510  203.7600  108.8040 C.ar   84  PHE84      -0.0042
     72  CE1      -17.6390  201.4370  110.3070 C.ar   84  PHE84      -0.0003
     73  CE2      -18.9370  203.3840  109.7390 C.ar   84  PHE84      -0.0003
     74  CZ       -18.7760  202.2230  110.4880 C.ar   84  PHE84      -0.0000
     75  N        -15.0740  204.7220  104.9850 N.am   85  GLU85      -0.1965
     76  CA       -14.0930  205.5050  104.2780 C.3    85  GLU85       0.1733
     77  C        -13.0200  205.7040  105.3640 C.2    85  GLU85       0.2616
     78  O        -13.3140  205.5920  106.5640 O.2    85  GLU85      -0.2715
     79  CB       -14.6820  206.8600  103.8640 C.3    85  GLU85       0.0429
     80  CG       -15.0540  207.7590  105.0330 C.3    85  GLU85       0.1163
     81  CD       -15.5060  209.1480  104.6040 C.2    85  GLU85       0.3649
     82  OE1      -14.7090  209.8870  103.9920 O.co2  85  GLU85      -0.2457
     83  OE2      -16.6630  209.5080  104.8850 O.co2  85  GLU85      -0.2457
     84  N        -11.7870  205.9940  104.9610 N.am   86  PHE86      -0.1960
     85  CA       -10.7190  206.1790  105.9330 C.3    86  PHE86       0.1771
     86  C        -10.2870  207.6290  106.0790 C.2    86  PHE86       0.2619
     87  O        -10.1940  208.3560  105.0890 O.2    86  PHE86      -0.2715
     88  CB        -9.5050  205.3200  105.5530 C.3    86  PHE86       0.0574
     89  CG        -8.2670  205.6480  106.3370 C.ar   86  PHE86      -0.0200
     90  CD1       -7.3950  206.6380  105.9030 C.ar   86  PHE86      -0.0042
     91  CD2       -7.9980  204.9990  107.5390 C.ar   86  PHE86      -0.0042
     92  CE1       -6.2600  206.9840  106.6620 C.ar   86  PHE86      -0.0003
     93  CE2       -6.8660  205.3360  108.3060 C.ar   86  PHE86      -0.0003
     94  CZ        -5.9980  206.3300  107.8660 C.ar   86  PHE86      -0.0000
     95  N        -10.0530  208.0540  107.3200 N.am   87  LEU87      -0.1963
     96  CA        -9.5850  209.4110  107.5910 C.3    87  LEU87       0.1728
     97  C         -8.3410  209.3090  108.4570 C.2    87  LEU87       0.2616
     98  O         -8.2470  208.4300  109.3240 O.2    87  LEU87      -0.2715
     99  CB       -10.6590  210.2640  108.2710 C.3    87  LEU87       0.0311
    100  CG       -11.6580  210.8160  107.2530 C.3    87  LEU87       0.0022
    101  CD1      -12.8760  209.9040  107.2120 C.3    87  LEU87       0.0001
    102  CD2      -12.0530  212.2490  107.6110 C.3    87  LEU87       0.0001
    103  N         -7.3920  210.2100  108.2200 N.am   88  HIS88      -0.1959
    104  CA        -6.1040  210.1940  108.9240 C.3    88  HIS88       0.1787
    105  C         -6.0380  210.3390  110.4370 C.2    88  HIS88       0.2620
    106  O         -5.1640  209.7580  111.0680 O.2    88  HIS88      -0.2715
    107  CB        -5.1760  211.2620  108.3500 C.3    88  HIS88       0.0785
    108  CG        -5.1190  211.2700  106.8630 C.ar   88  HIS88       0.0821
    109  ND1       -6.0280  211.9620  106.0900 N.ar   88  HIS88      -0.2267
    110  CD2       -4.2800  210.6500  106.0020 C.ar   88  HIS88       0.1154
    111  CE1       -5.7490  211.7660  104.8140 C.ar   88  HIS88       0.1986
    112  NE2       -4.6940  210.9730  104.7340 N.ar   88  HIS88      -0.2212
    113  N         -6.9480  211.1030  111.0230 N.am   89  GLN89      -0.1963
    114  CA        -6.8530  211.3440  112.4490 C.3    89  GLN89       0.1733
    115  C         -8.1900  211.6410  113.1010 C.2    89  GLN89       0.2616
    116  O         -9.1570  211.9640  112.4160 O.2    89  GLN89      -0.2715
    117  CB        -5.9170  212.5380  112.6380 C.3    89  GLN89       0.0408
    118  CG        -5.6260  212.9080  114.0540 C.3    89  GLN89       0.0908
    119  CD        -4.7080  211.9150  114.6960 C.2    89  GLN89       0.2608
    120  OE1       -5.0770  210.7580  114.9160 O.2    89  GLN89      -0.2717
    121  NE2       -3.4860  212.3500  114.9860 N.am   89  GLN89      -0.0878
    122  N         -8.2440  211.5260  114.4290 N.am   90  ASP90      -0.1971
    123  CA        -9.4630  211.8630  115.1650 C.3    90  ASP90       0.1709
    124  C         -9.1630  213.1290  115.9810 C.2    90  ASP90       0.2293
    125  O         -8.0170  213.3800  116.3580 O.2    90  ASP90      -0.2864
    126  CB        -9.9490  210.6990  116.0520 C.3    90  ASP90       0.1436
    127  CG        -9.0630  210.4410  117.2530 C.2    90  ASP90       0.3671
    128  OD1       -8.8910  211.3500  118.0870 O.co2  90  ASP90      -0.2456
    129  OD2       -8.5510  209.3080  117.3760 O.co2  90  ASP90      -0.2456
    130  N         -6.8610  213.0930  119.3470 N.3    93  LYS93      -0.1245
    131  CA        -5.4080  213.0130  119.1810 C.3    93  LYS93       0.1561
    132  C         -4.8260  214.3290  118.6770 C.2    93  LYS93       0.2260
    133  O         -3.7410  214.7470  119.0910 O.2    93  LYS93      -0.2867
    134  CB        -5.0470  211.8830  118.2200 C.3    93  LYS93       0.0271
    135  CG        -5.5060  210.5270  118.7030 C.3    93  LYS93       0.0035
    136  CD        -5.0130  209.4110  117.8080 C.3    93  LYS93       0.0206
    137  CE        -5.4570  208.0620  118.3460 C.3    93  LYS93       0.1093
    138  NZ        -4.8560  206.9360  117.5820 N.3    93  LYS93      -0.1314
    139  N        -13.7040  212.5970  113.1370 N.3   138  LEU138     -0.1245
    140  CA       -12.5840  212.2860  112.2580 C.3   138  LEU138      0.1561
    141  C        -12.1720  213.4580  111.3850 C.2   138  LEU138      0.2260
    142  O        -13.0170  214.2120  110.8950 O.2   138  LEU138     -0.2867
    143  CB       -12.9470  211.0990  111.3700 C.3   138  LEU138      0.0270
    144  CG       -13.3630  209.8150  112.0800 C.3   138  LEU138      0.0019
    145  CD1      -13.6500  208.7450  111.0380 C.3   138  LEU138      0.0001
    146  CD2      -12.2650  209.3560  113.0390 C.3   138  LEU138      0.0001
    147  N        -18.5450  210.4500  113.4270 N.3   148  ALA148     -0.1231
    148  CA       -18.4060  209.0150  113.3040 C.3   148  ALA148      0.1694
    149  C        -18.9210  208.3840  114.5870 C.2   148  ALA148      0.2592
    150  O        -19.3710  209.0850  115.5000 O.2   148  ALA148     -0.2718
    151  CB       -16.9440  208.6480  113.0890 C.3   148  ALA148      0.0304
    152  N        -18.8560  207.0600  114.6490 N.am  149  ASP149     -0.1974
    153  CA       -19.2710  206.3210  115.8280 C.3   149  ASP149      0.1709
    154  C        -20.7560  206.4940  116.1740 C.2   149  ASP149      0.2293
    155  O        -21.1160  207.0880  117.1990 O.2   149  ASP149     -0.2864
    156  CB       -18.3980  206.7260  117.0150 C.3   149  ASP149      0.1436
    157  CG       -18.1130  205.5650  117.9400 C.2   149  ASP149      0.3671
    158  OD1      -19.0530  205.1000  118.6150 O.co2 149  ASP149     -0.2456
    159  OD2      -16.9490  205.1070  117.9790 O.co2 149  ASP149     -0.2456
@<TRIPOS>BOND
     1    79    76    1
     2    79    80    1
     3    82    81   ar
     4    76    75    1
     5    76    77    1
     6    81    83   ar
     7    81    80    1
     8   112   111   ar
     9   112   110   ar
    10   111   109   ar
    11    84    77   am
    12    84    85    1
    13    75    66   am
    14    87    86    2
    15    67    66    2
    16    77    78    2
    17    66    65    1
    18    88    85    1
    19    88    89    1
    20    90    89   ar
    21    90    92   ar
    22    85    86    1
    23   110   108   ar
    24    86    95   am
    25    41    42    1
    26    41    40    1
    27   109   108   ar
    28    65    64    1
    29    65    68    1
    30    89    91   ar
    31    43    44    1
    32    92    94   ar
    33   108   107    1
    34    59    60    2
    35    59    58    1
    36    39    40    1
    37    39    38    1
    38   101   100    1
    39   100   102    1
    40   100    99    1
    41    95    96    1
    42    36    37    2
    43    36    35    1
    44    91    93   ar
    45    96    99    1
    46    96    97    1
    47    46    45    2
    48    68    69    1
    49    44    45    1
    50    44    47    1
    51    94    93   ar
    52    58    57    1
    53    58    61    1
    54   103    97   am
    55   103   104    1
    56   107   104    1
    57    35    38    1
    58    35    34    1
    59    97    98    2
    60    63    61    1
    61    69    71   ar
    62    69    70   ar
    63    71    73   ar
    64   104   105    1
    65    61    62    1
    66     1     2    1
    67    70    72   ar
    68    73    74   ar
    69     9     7   ar
    70    72    74   ar
    71     6     7    1
    72     6     5    1
    73   105   113   am
    74   105   106    2
    75    48    49    1
    76     7     8   ar
    77     2     5    1
    78     2     3    1
    79   142   141    2
    80    26    24    1
    81   113   114    1
    82   145   144    1
    83     4     3    2
    84    51    50    2
    85   143   144    1
    86   143   140    1
    87   141   140    1
    88     3    10   am
    89    49    50    1
    90    49    52    1
    91    24    23    1
    92   144   146    1
    93   140   139    1
    94    52    53    1
    95   116   115    2
    96   114   117    1
    97   114   115    1
    98    32    31    1
    99   117   118    1
   100    10    11    1
   101    29    28    1
   102    29    30    2
   103   151   148    1
   104   115   122   am
   105    23    25    1
   106    23    20    1
   107   148   147    1
   108   148   149    1
   109    28    31    1
   110    28    27    1
   111    53    54    1
   112    11    12    1
   113    11    14    1
   114    31    33    1
   115    55    54    1
   116    55    56    1
   117    19    12   am
   118    19    20    1
   119   118   119    1
   120    12    13    2
   121    20    21    1
   122   122   123    1
   123   149   152   am
   124   149   150    2
   125   152   153    1
   126   119   120    2
   127   119   121   am
   128    14    15    1
   129   123   124    1
   130   123   126    1
   131    21    22    2
   132   153   154    1
   133   153   156    1
   134   124   125    2
   135    15    16    1
   136   126   127    1
   137   154   155    2
   138    16    17    1
   139   156   157    1
   140   127   129   ar
   141   127   128   ar
   142   138   137    1
   143   136   137    1
   144   136   135    1
   145    17    18    1
   146   157   159   ar
   147   157   158   ar
   148   134   135    1
   149   134   131    1
   150   132   133    2
   151   132   131    1
   152   131   130    1
