@<TRIPOS>MOLECULE
tmp/1vyzA00.pdb
 150 142 0 0 0
SMALL
GASTEIGER

@<TRIPOS>ATOM
      1  N         13.8240   56.4860   28.9610 N.3     8  GLU8       -0.1245
      2  CA        13.5460   55.7390   30.1880 C.3     8  GLU8        0.1567
      3  C         14.2130   54.3650   30.1640 C.2     8  GLU8        0.2260
      4  O         14.7550   53.9420   29.1390 O.2     8  GLU8       -0.2867
      5  CB        12.0220   55.5720   30.3860 C.3     8  GLU8        0.0388
      6  CG        11.2830   54.8690   29.2300 C.3     8  GLU8        0.1160
      7  CD         9.7760   54.8140   29.4110 C.2     8  GLU8        0.3649
      8  OE1        9.1670   55.8570   29.7380 O.co2   8  GLU8       -0.2457
      9  OE2        9.1960   53.7270   29.2030 O.co2   8  GLU8       -0.2457
     10  N         13.7170   50.4160   30.3730 N.3    10  ILE10      -0.1245
     11  CA        12.6930   49.4090   30.0960 C.3    10  ILE10       0.1561
     12  C         12.7800   48.2840   31.1320 C.2    10  ILE10       0.2260
     13  O         11.7900   47.9730   31.8020 O.2    10  ILE10      -0.2867
     14  CB        12.8330   48.8360   28.6540 C.3    10  ILE10       0.0252
     15  CG1       12.5350   49.9320   27.6220 C.3    10  ILE10       0.0019
     16  CG2       11.9110   47.6220   28.4550 C.3    10  ILE10       0.0019
     17  CD1       12.8780   49.5590   26.1870 C.3    10  ILE10       0.0001
     18  N         18.3340   47.3720   29.3100 N.3    18  VAL18      -0.1245
     19  CA        17.6500   47.7810   28.0770 C.3    18  VAL18       0.1561
     20  C         17.0230   49.1590   28.2890 C.2    18  VAL18       0.2260
     21  O         16.2840   49.3660   29.2480 O.2    18  VAL18      -0.2867
     22  CB        16.5380   46.7610   27.6620 C.3    18  VAL18       0.0252
     23  CG1       16.0490   47.0420   26.2310 C.3    18  VAL18       0.0019
     24  CG2       17.0440   45.3260   27.7690 C.3    18  VAL18       0.0019
     25  N         15.4530   50.8470   20.8220 N.3    31  ALA31      -0.1245
     26  CA        15.6820   50.1330   22.0680 C.3    31  ALA31       0.1562
     27  C         17.1880   49.9110   22.0770 C.2    31  ALA31       0.2260
     28  O         17.7470   49.3490   21.1290 O.2    31  ALA31      -0.2867
     29  CB        14.9570   48.8310   22.0780 C.3    31  ALA31       0.0290
     30  N         20.4370   48.3240   23.9970 N.3    33  LYS33      -0.1245
     31  CA        20.9000   47.3300   24.9550 C.3    33  LYS33       0.1561
     32  C         22.4080   47.4560   25.1810 C.2    33  LYS33       0.2260
     33  O         23.1900   47.4320   24.2300 O.2    33  LYS33      -0.2867
     34  CB        20.5300   45.9080   24.5020 C.3    33  LYS33       0.0271
     35  CG        20.5830   44.8860   25.6320 C.3    33  LYS33       0.0035
     36  CD        19.9380   43.5610   25.2780 C.3    33  LYS33       0.0206
     37  CE        19.9090   42.6570   26.5110 C.3    33  LYS33       0.1093
     38  NZ        19.2250   41.3520   26.2780 N.3    33  LYS33      -0.1314
     39  N         12.8740   41.0230   15.6640 N.3    53  VAL53      -0.1245
     40  CA        13.1550   42.4160   16.0240 C.3    53  VAL53       0.1561
     41  C         14.4660   42.8040   15.3510 C.2    53  VAL53       0.2260
     42  O         15.5160   42.1950   15.5960 O.2    53  VAL53      -0.2867
     43  CB        13.2550   42.6200   17.5650 C.3    53  VAL53       0.0252
     44  CG1       13.5790   44.0760   17.9210 C.3    53  VAL53       0.0019
     45  CG2       11.9520   42.2460   18.2120 C.3    53  VAL53       0.0019
     46  N         18.3160   48.2890   18.6030 N.3    69  PHE69      -0.1227
     47  CA        17.2100   47.5000   18.0770 C.3    69  PHE69       0.1736
     48  C         15.9800   48.3240   17.7290 C.2    69  PHE69       0.2595
     49  O         15.8230   49.4600   18.1660 O.2    69  PHE69      -0.2718
     50  CB        16.7590   46.4720   19.1230 C.3    69  PHE69       0.0547
     51  CG        17.6720   45.2880   19.2830 C.ar   69  PHE69      -0.0202
     52  CD1       18.5690   45.2200   20.3650 C.ar   69  PHE69      -0.0042
     53  CD2       17.5870   44.1950   18.3990 C.ar   69  PHE69      -0.0042
     54  CE1       19.3780   44.0660   20.5750 C.ar   69  PHE69      -0.0003
     55  CE2       18.3850   43.0350   18.5890 C.ar   69  PHE69      -0.0003
     56  CZ        19.2860   42.9700   19.6840 C.ar   69  PHE69      -0.0000
     57  N         15.0760   47.6850   16.9890 N.am   70  GLU70      -0.1965
     58  CA        13.7770   48.2400   16.6110 C.3    70  GLU70       0.1733
     59  C         12.9850   48.2990   17.9280 C.2    70  GLU70       0.2616
     60  O         13.1160   47.4050   18.7670 O.2    70  GLU70      -0.2715
     61  CB        13.0820   47.2650   15.6470 C.3    70  GLU70       0.0429
     62  CG        11.6600   47.6320   15.2440 C.3    70  GLU70       0.1163
     63  CD        10.8830   46.4840   14.6040 C.2    70  GLU70       0.3649
     64  OE1       11.4420   45.3860   14.3640 O.co2  70  GLU70      -0.2457
     65  OE2        9.6830   46.6930   14.3410 O.co2  70  GLU70      -0.2457
     66  N         12.2290   49.3710   18.1280 N.am   71  PHE71      -0.1960
     67  CA        11.4290   49.5210   19.3390 C.3    71  PHE71       0.1771
     68  C          9.9910   49.0350   19.1460 C.2    71  PHE71       0.2619
     69  O          9.3430   49.3640   18.1530 O.2    71  PHE71      -0.2715
     70  CB        11.4160   50.9940   19.8040 C.3    71  PHE71       0.0574
     71  CG        10.6680   51.2290   21.1070 C.ar   71  PHE71      -0.0200
     72  CD1       11.2520   50.8810   22.3390 C.ar   71  PHE71      -0.0042
     73  CD2        9.3480   51.7350   21.0960 C.ar   71  PHE71      -0.0042
     74  CE1       10.5300   51.0210   23.5550 C.ar   71  PHE71      -0.0003
     75  CE2        8.6150   51.8780   22.2940 C.ar   71  PHE71      -0.0003
     76  CZ         9.2070   51.5170   23.5330 C.ar   71  PHE71      -0.0000
     77  N          9.5130   48.2450   20.1100 N.am   72  LEU72      -0.1963
     78  CA         8.1330   47.7630   20.1390 C.3    72  LEU72       0.1728
     79  C          7.5840   48.1670   21.5100 C.2    72  LEU72       0.2616
     80  O          8.3090   48.1520   22.5110 O.2    72  LEU72      -0.2715
     81  CB         8.0200   46.2590   19.8690 C.3    72  LEU72       0.0311
     82  CG         8.1520   45.8690   18.3840 C.3    72  LEU72       0.0022
     83  CD1        9.5750   45.4130   18.1220 C.3    72  LEU72       0.0001
     84  CD2        7.1760   44.7760   17.9870 C.3    72  LEU72       0.0001
     85  N          6.3070   48.5370   21.5450 N.am   73  HIS73      -0.1959
     86  CA         5.6750   49.0500   22.7570 C.3    73  HIS73       0.1787
     87  C          5.2870   48.1570   23.9280 C.2    73  HIS73       0.2620
     88  O          4.9520   48.6720   24.9950 O.2    73  HIS73      -0.2715
     89  CB         4.5030   49.9430   22.3730 C.3    73  HIS73       0.0785
     90  CG         4.9180   51.2380   21.7530 C.ar   73  HIS73       0.0821
     91  ND1        5.3790   51.3250   20.4560 N.ar   73  HIS73      -0.2267
     92  CD2        4.9780   52.4920   22.2620 C.ar   73  HIS73       0.1154
     93  CE1        5.7110   52.5760   20.1960 C.ar   73  HIS73       0.1986
     94  NE2        5.4770   53.3040   21.2740 N.ar   73  HIS73      -0.2212
     95  N          5.3110   46.8410   23.7400 N.am   74  GLN74      -0.1963
     96  CA         4.9690   45.9150   24.8190 C.3    74  GLN74       0.1733
     97  C          5.5140   44.5170   24.5720 C.2    74  GLN74       0.2616
     98  O          5.6860   44.1030   23.4200 O.2    74  GLN74      -0.2715
     99  CB         3.4430   45.8490   25.0260 C.3    74  GLN74       0.0408
    100  CG         3.0240   45.3790   26.4300 C.3    74  GLN74       0.0908
    101  CD         1.5920   45.7340   26.7710 C.2    74  GLN74       0.2608
    102  OE1        1.2420   46.9130   26.9270 O.2    74  GLN74      -0.2717
    103  NE2        0.7500   44.7210   26.8800 N.am   74  GLN74      -0.0878
    104  N          5.8540   43.8300   25.6610 N.am   75  ASP75      -0.1971
    105  CA         6.3180   42.4470   25.5910 C.3    75  ASP75       0.1709
    106  C          5.1260   41.5280   25.8920 C.2    75  ASP75       0.2293
    107  O          4.1050   41.9970   26.4250 O.2    75  ASP75      -0.2864
    108  CB         7.5120   42.1780   26.5330 C.3    75  ASP75       0.1436
    109  CG         7.2160   42.4870   27.9940 C.2    75  ASP75       0.3671
    110  OD1        6.4950   41.7060   28.6360 O.co2  75  ASP75      -0.2456
    111  OD2        7.7240   43.5020   28.5020 O.co2  75  ASP75      -0.2456
    112  N          4.0390   41.1000   29.9110 N.3    78  LYS78      -0.1245
    113  CA         3.1890   42.1830   30.4160 C.3    78  LYS78       0.1561
    114  C          1.7720   42.0760   29.8330 C.2    78  LYS78       0.2260
    115  O          0.7940   42.3120   30.5450 O.2    78  LYS78      -0.2867
    116  CB         3.8160   43.5460   30.0850 C.3    78  LYS78       0.0271
    117  CG         3.1530   44.7460   30.7560 C.3    78  LYS78       0.0035
    118  CD         3.8230   46.0580   30.3530 C.3    78  LYS78       0.0206
    119  CE         3.1040   47.2650   30.9490 C.3    78  LYS78       0.1093
    120  NZ         1.6770   47.3620   30.5190 N.3    78  LYS78      -0.1314
    121  N          9.1030   37.3870   27.8310 N.3   120  GLN120     -0.1245
    122  CA         9.7980   38.6730   27.9690 C.3   120  GLN120      0.1566
    123  C         10.5220   39.1460   26.7080 C.2   120  GLN120      0.2260
    124  O         10.7000   40.3500   26.5220 O.2   120  GLN120     -0.2867
    125  CB        10.8070   38.6190   29.1230 C.3   120  GLN120      0.0367
    126  CG        10.2040   38.3760   30.4990 C.3   120  GLN120      0.0905
    127  CD        11.2630   38.1720   31.5700 C.2   120  GLN120      0.2608
    128  OE1       12.0400   39.0820   31.8750 O.2   120  GLN120     -0.2717
    129  NE2       11.3040   36.9710   32.1410 N.am  120  GLN120     -0.0878
    130  N          8.0120   40.4540   21.5590 N.3   123  LEU123     -0.1245
    131  CA         7.4810   41.8090   21.5290 C.3   123  LEU123      0.1561
    132  C          6.3100   41.9770   20.5840 C.2   123  LEU123      0.2260
    133  O          6.2910   41.3830   19.5150 O.2   123  LEU123     -0.2867
    134  CB         8.6080   42.7690   21.1680 C.3   123  LEU123      0.0270
    135  CG         9.8110   42.8070   22.1130 C.3   123  LEU123      0.0019
    136  CD1       10.9100   43.5140   21.4300 C.3   123  LEU123      0.0001
    137  CD2        9.4740   43.4780   23.4210 C.3   123  LEU123      0.0001
    138  N         12.8410   38.8050   19.9680 N.3   133  ALA133     -0.1231
    139  CA        13.9760   39.6650   20.3140 C.3   133  ALA133      0.1694
    140  C         15.1080   38.8310   20.9020 C.2   133  ALA133      0.2592
    141  O         14.8510   37.7930   21.4970 O.2   133  ALA133     -0.2718
    142  CB        13.5460   40.7190   21.3160 C.3   133  ALA133      0.0304
    143  N         16.3410   39.3320   20.7870 N.am  134  ASP134     -0.1974
    144  CA        17.5750   38.6920   21.2910 C.3   134  ASP134      0.1709
    145  C         17.9610   37.3660   20.6400 C.2   134  ASP134      0.2293
    146  O         18.5810   36.5060   21.2740 O.2   134  ASP134     -0.2864
    147  CB        17.5720   38.5560   22.8310 C.3   134  ASP134      0.1436
    148  CG        17.5150   39.8980   23.5450 C.2   134  ASP134      0.3671
    149  OD1       17.7370   40.9480   22.9020 O.co2 134  ASP134     -0.2456
    150  OD2       17.2330   39.8970   24.7610 O.co2 134  ASP134     -0.2456
@<TRIPOS>BOND
     1    65    63   ar
     2    64    63   ar
     3    63    62    1
     4    62    61    1
     5    41    42    2
     6    41    40    1
     7    61    58    1
     8    39    40    1
     9    40    43    1
    10    58    57    1
    11    58    59    1
    12    57    48   am
    13    43    44    1
    14    43    45    1
    15    48    47    1
    16    48    49    2
    17    59    66   am
    18    59    60    2
    19    84    82    1
    20    47    46    1
    21    47    50    1
    22    83    82    1
    23    66    67    1
    24    69    68    2
    25    82    81    1
    26    53    55   ar
    27    53    51   ar
    28    55    56   ar
    29    50    51    1
    30    68    67    1
    31    68    77   am
    32    51    52   ar
    33    67    70    1
    34   133   132    2
    35    56    54   ar
    36    70    71    1
    37    81    78    1
    38   138   139    1
    39    77    78    1
    40    78    79    1
    41    93    91   ar
    42    93    94   ar
    43   139   140    1
    44   139   142    1
    45    52    54   ar
    46    91    90   ar
    47   132   131    1
    48   145   146    2
    49   145   144    1
    50   143   140   am
    51   143   144    1
    52    25    26    1
    53   140   141    2
    54    73    71   ar
    55    73    75   ar
    56    71    72   ar
    57    28    27    2
    58   134   131    1
    59   134   135    1
    60    94    92   ar
    61   144   147    1
    62   136   135    1
    63    79    85   am
    64    79    80    2
    65   131   130    1
    66    85    86    1
    67    90    92   ar
    68    90    89    1
    69    26    27    1
    70    26    29    1
    71   135   137    1
    72    75    76   ar
    73    72    74   ar
    74    89    86    1
    75    86    87    1
    76   147   148    1
    77   149   148   ar
    78    98    97    2
    79    76    74   ar
    80   148   150   ar
    81    95    87   am
    82    95    96    1
    83    87    88    2
    84    30    31    1
    85    33    32    2
    86    34    31    1
    87    34    35    1
    88    97    96    1
    89    97   104   am
    90    96    99    1
    91    31    32    1
    92    99   100    1
    93    36    35    1
    94    36    37    1
    95   105   104    1
    96   105   106    1
    97   105   108    1
    98   106   107    2
    99    17    15    1
   100    23    22    1
   101    38    37    1
   102   100   101    1
   103   124   123    2
   104   108   109    1
   105   123   122    1
   106   101   103   am
   107   101   102    2
   108    15    14    1
   109    22    24    1
   110    22    19    1
   111   121   122    1
   112   122   125    1
   113   109   111   ar
   114   109   110   ar
   115    19    20    1
   116    19    18    1
   117    20    21    2
   118    16    14    1
   119    14    11    1
   120     1     2    1
   121   125   126    1
   122     4     3    2
   123     9     7   ar
   124     6     7    1
   125     6     5    1
   126     7     8   ar
   127   114   113    1
   128   114   115    2
   129   112   113    1
   130   116   113    1
   131   116   117    1
   132    11    10    1
   133    11    12    1
   134     3     2    1
   135     2     5    1
   136   118   117    1
   137   118   119    1
   138   126   127    1
   139   120   119    1
   140    12    13    2
   141   127   128    2
   142   127   129   am
