@<TRIPOS>MOLECULE
tmp/1vz4B00.pdb
 116 108 0 0 0
SMALL
GASTEIGER

@<TRIPOS>ATOM
      1  N         44.0750   37.9920   30.2610 N.3    81  LEU81      -0.1245
      2  CA        43.2160   39.1610   30.6780 C.3    81  LEU81       0.1561
      3  C         41.9180   39.2300   29.9350 C.2    81  LEU81       0.2260
      4  O         41.9250   39.4420   28.7370 O.2    81  LEU81      -0.2867
      5  CB        43.9630   40.5050   30.5870 C.3    81  LEU81       0.0270
      6  CG        45.2570   40.5450   31.4490 C.3    81  LEU81       0.0019
      7  CD1       46.2940   41.6280   31.0680 C.3    81  LEU81       0.0001
      8  CD2       45.0190   40.5580   32.9700 C.3    81  LEU81       0.0001
      9  N         42.5760   46.9160   31.9380 N.3    85  ALA85      -0.1245
     10  CA        43.7500   47.7210   32.2310 C.3    85  ALA85       0.1562
     11  C         43.7060   49.1460   31.7660 C.2    85  ALA85       0.2260
     12  O         44.7270   49.6760   31.2920 O.2    85  ALA85      -0.2867
     13  CB        44.9730   47.0730   31.6890 C.3    85  ALA85       0.0290
     14  N         49.9860   52.5280   32.9670 N.3    89  HIS89      -0.1241
     15  CA        51.0280   51.9910   33.8880 C.3    89  HIS89       0.1621
     16  C         52.2030   51.3040   33.1300 C.2    89  HIS89       0.2264
     17  O         52.2340   51.1820   31.9010 O.2    89  HIS89      -0.2867
     18  CB        50.3660   50.9460   34.7190 C.3    89  HIS89       0.0745
     19  CG        49.7980   49.8630   33.8750 C.ar   89  HIS89       0.0817
     20  ND1       48.6670   50.0470   33.1080 N.ar   89  HIS89      -0.2268
     21  CD2       50.2590   48.6270   33.5770 C.ar   89  HIS89       0.1154
     22  CE1       48.4220   48.9460   32.4250 C.ar   89  HIS89       0.1986
     23  NE2       49.3790   48.0760   32.6820 N.ar   89  HIS89      -0.2212
     24  N         54.4210   47.6160   33.5320 N.3    91  ASP91      -0.1239
     25  CA        53.9370   46.3710   34.2370 C.3    91  ASP91       0.1674
     26  C         54.6180   46.1190   35.5730 C.2    91  ASP91       0.2266
     27  O         55.8030   46.3700   35.7300 O.2    91  ASP91      -0.2867
     28  CB        54.0420   45.0990   33.3740 C.3    91  ASP91       0.1410
     29  CG        53.0910   45.1270   32.1210 C.2    91  ASP91       0.3668
     30  OD1       51.8760   45.4980   32.2610 O.co2  91  ASP91      -0.2456
     31  OD2       53.5030   44.7850   30.9750 O.co2  91  ASP91      -0.2456
     32  N         52.2780   40.2270   24.0940 N.3   104  LEU104     -0.1245
     33  CA        50.8330   40.0840   24.2620 C.3   104  LEU104      0.1561
     34  C         50.1790   39.6490   22.9410 C.2   104  LEU104      0.2260
     35  O         50.4200   40.2810   21.8930 O.2   104  LEU104     -0.2867
     36  CB        50.2270   41.4400   24.7480 C.3   104  LEU104      0.0270
     37  CG        48.7430   41.6540   25.0040 C.3   104  LEU104      0.0019
     38  CD1       48.2160   40.8000   26.1300 C.3   104  LEU104      0.0001
     39  CD2       48.3630   43.1330   25.1410 C.3   104  LEU104      0.0001
     40  N         44.6870   49.4480   22.4520 N.3   116  THR116     -0.1218
     41  CA        45.6780   49.5600   23.4630 C.3   116  THR116      0.1862
     42  C         46.5730   50.7460   23.0160 C.2   116  THR116      0.2287
     43  O         46.7430   50.9400   21.7820 O.2   116  THR116     -0.2866
     44  CB        46.5100   48.2930   23.5640 C.3   116  THR116      0.1770
     45  OG1       45.6940   47.1850   23.9820 O.3   116  THR116     -0.2211
     46  CG2       47.6150   48.4290   24.6810 C.3   116  THR116      0.0375
     47  N         44.8700   45.5500   37.8190 N.3   149  TYR149     -0.1241
     48  CA        43.8640   45.0240   36.8800 C.3   149  TYR149      0.1605
     49  C         43.9340   43.4790   36.5200 C.2   149  TYR149      0.2264
     50  O         43.0210   42.9390   35.8770 O.2   149  TYR149     -0.2867
     51  CB        44.0390   45.8340   35.5990 C.3   149  TYR149      0.0534
     52  CG        45.4800   45.6770   35.0100 C.ar  149  TYR149     -0.0201
     53  CD1       45.8810   44.4740   34.3550 C.ar  149  TYR149     -0.0009
     54  CD2       46.4400   46.6970   35.1240 C.ar  149  TYR149     -0.0009
     55  CE1       47.1380   44.3150   33.8210 C.ar  149  TYR149      0.0417
     56  CE2       47.7350   46.5410   34.5690 C.ar  149  TYR149      0.0417
     57  CZ        48.0720   45.3580   33.9120 C.ar  149  TYR149      0.1957
     58  OH        49.3470   45.1840   33.3710 O.3   149  TYR149     -0.2866
     59  N         56.5470   44.8860   24.0270 N.3   216  TRP216     -0.1241
     60  CA        57.0580   46.1900   24.4270 C.3   216  TRP216      0.1605
     61  C         58.1320   46.0810   25.4510 C.2   216  TRP216      0.2264
     62  O         58.1280   45.1530   26.2950 O.2   216  TRP216     -0.2867
     63  CB        55.9400   47.1090   24.9300 C.3   216  TRP216      0.0550
     64  CG        55.1500   46.6220   26.0670 C.ar  216  TRP216      0.0003
     65  CD1       55.3940   46.8680   27.3460 C.ar  216  TRP216      0.0946
     66  CD2       53.9190   45.8480   26.0330 C.ar  216  TRP216      0.0152
     67  NE1       54.4430   46.2820   28.1500 N.ar  216  TRP216     -0.2442
     68  CE2       53.4990   45.6750   27.3850 C.ar  216  TRP216      0.0810
     69  CE3       53.1450   45.2770   25.0170 C.ar  216  TRP216      0.0012
     70  CZ2       52.3320   44.9820   27.7520 C.ar  216  TRP216      0.0191
     71  CZ3       51.9740   44.5850   25.3750 C.ar  216  TRP216      0.0001
     72  CH2       51.5720   44.4570   26.7400 C.ar  216  TRP216      0.0015
     73  N         51.7260   51.6560   29.2000 N.3   223  HIS223     -0.1241
     74  CA        50.6660   51.4120   28.2320 C.3   223  HIS223      0.1621
     75  C         49.2750   51.4930   28.8430 C.2   223  HIS223      0.2264
     76  O         49.1300   51.5850   30.0880 O.2   223  HIS223     -0.2867
     77  CB        50.8360   50.0130   27.6200 C.3   223  HIS223      0.0745
     78  CG        50.9480   48.9350   28.6350 C.ar  223  HIS223      0.0817
     79  ND1       52.1350   48.6620   29.2990 N.ar  223  HIS223     -0.2268
     80  CD2       50.0430   48.0360   29.0890 C.ar  223  HIS223      0.1154
     81  CE1       51.9450   47.6570   30.1440 C.ar  223  HIS223      0.1986
     82  NE2       50.6810   47.2660   30.0430 N.ar  223  HIS223     -0.2212
     83  N         45.0430   50.0110   28.2600 N.3   225  ALA225     -0.1245
     84  CA        44.0690   49.2640   27.5520 C.3   225  ALA225      0.1562
     85  C         42.7010   50.0430   27.5500 C.2   225  ALA225      0.2260
     86  O         42.0470   50.2050   28.6050 O.2   225  ALA225     -0.2867
     87  CB        43.9390   47.9060   28.2720 C.3   225  ALA225      0.0290
     88  N         36.6370   40.2940   24.9570 N.3   234  ARG234     -0.1245
     89  CA        38.0030   40.5860   24.6850 C.3   234  ARG234      0.1563
     90  C         38.9020   39.6940   25.4810 C.2   234  ARG234      0.2260
     91  O         38.8530   39.7320   26.7540 O.2   234  ARG234     -0.2867
     92  CB        38.2920   42.0060   24.9770 C.3   234  ARG234      0.0307
     93  CG        39.6840   42.4180   24.4460 C.3   234  ARG234      0.0489
     94  CD        39.9640   43.7900   24.8670 C.3   234  ARG234      0.2205
     95  NE        41.1320   44.4710   24.3600 N.pl3 234  ARG234     -0.0865
     96  CZ        42.3310   44.4190   24.8610 C.cat 234  ARG234      0.5346
     97  NH1       43.3140   45.1800   24.3280 N.pl3 234  ARG234      0.1354
     98  NH2       42.5600   43.6340   25.8740 N.pl3 234  ARG234      0.1354
     99  N         42.9880   38.6280   25.7590 N.3   236  VAL236     -0.1245
    100  CA        44.3810   38.7430   25.3890 C.3   236  VAL236      0.1561
    101  C         45.1600   37.8700   26.3100 C.2   236  VAL236      0.2260
    102  O         44.7060   37.6650   27.4400 O.2   236  VAL236     -0.2867
    103  CB        44.8770   40.1920   25.4760 C.3   236  VAL236      0.0252
    104  CG1       44.2120   41.0270   24.4650 C.3   236  VAL236      0.0019
    105  CG2       44.7370   40.8170   26.9400 C.3   236  VAL236      0.0019
    106  N         49.2290   37.2040   27.8850 N.3   238  ARG238     -0.1245
    107  CA        50.4530   37.9150   28.1530 C.3   238  ARG238      0.1563
    108  C         51.4770   36.9980   28.7830 C.2   238  ARG238      0.2260
    109  O         51.1370   36.2080   29.6820 O.2   238  ARG238     -0.2867
    110  CB        50.1700   39.0400   29.1230 C.3   238  ARG238      0.0307
    111  CG        51.4290   39.9360   29.4320 C.3   238  ARG238      0.0489
    112  CD        51.1380   41.1610   30.3720 C.3   238  ARG238      0.2205
    113  NE        51.0100   40.7590   31.7890 N.pl3 238  ARG238     -0.0865
    114  CZ        50.9700   41.5790   32.8310 C.cat 238  ARG238      0.5346
    115  NH1       51.0100   42.8790   32.6880 N.pl3 238  ARG238      0.1354
    116  NH2       50.8350   41.0870   34.0490 N.pl3 238  ARG238      0.1354
@<TRIPOS>BOND
     1    43    42    2
     2    35    34    2
     3    40    41    1
     4    34    33    1
     5    42    41    1
     6    41    44    1
     7    44    45    1
     8    44    46    1
     9    59    60    1
    10    32    33    1
    11    33    36    1
    12    97    96    1
    13    95    96    2
    14    95    94    1
    15    60    63    1
    16    60    61    1
    17    93    94    1
    18    93    92    1
    19   104   103    1
    20    89    88    1
    21    89    92    1
    22    89    90    1
    23    36    37    1
    24    96    98    1
    25    63    64    1
    26    37    39    1
    27    37    38    1
    28    69    71   ar
    29    69    66   ar
    30    71    72   ar
    31   100   103    1
    32   100    99    1
    33   100   101    1
    34    61    62    2
    35   103   105    1
    36    90    91    2
    37    66    64   ar
    38    66    68   ar
    39    64    65   ar
    40   101   102    2
    41    72    70   ar
    42    65    67   ar
    43    68    70   ar
    44    68    67   ar
    45    85    84    1
    46    85    86    2
    47    84    83    1
    48    84    87    1
    49    77    74    1
    50    77    78    1
    51   106   107    1
    52   107   108    1
    53   107   110    1
    54    74    75    1
    55    74    73    1
    56    78    80   ar
    57    78    79   ar
    58     4     3    2
    59   108   109    2
    60    75    76    2
    61    80    82   ar
    62   110   111    1
    63    79    81   ar
    64   111   112    1
    65     3     2    1
    66    82    81   ar
    67     1     2    1
    68   112   113    1
    69     5     2    1
    70     5     6    1
    71    31    29   ar
    72     7     6    1
    73    12    11    2
    74     6     8    1
    75    13    10    1
    76    11    10    1
    77   113   114    2
    78    17    16    2
    79     9    10    1
    80    29    30   ar
    81    29    28    1
    82    22    23   ar
    83    22    20   ar
    84    23    21   ar
    85   115   114    1
    86   114   116    1
    87    14    15    1
    88    20    19   ar
    89    16    15    1
    90    58    57    1
    91    28    25    1
    92    24    25    1
    93    21    19   ar
    94    55    57   ar
    95    55    53   ar
    96    19    18    1
    97    15    18    1
    98    57    56   ar
    99    25    26    1
   100    53    52   ar
   101    56    54   ar
   102    52    54   ar
   103    52    51    1
   104    26    27    2
   105    51    48    1
   106    50    49    2
   107    49    48    1
   108    48    47    1
