@<TRIPOS>MOLECULE
tmp/1vzqA01.pdb
 244 245 0 0 0
SMALL
GASTEIGER

@<TRIPOS>ATOM
      1  N         14.4760   -7.1490    9.0410 N.3    27  LEU27      -0.1231
      2  CA        15.6710   -7.4790    9.7860 C.3    27  LEU27       0.1693
      3  C         15.5040   -7.1660   11.2700 C.2    27  LEU27       0.2592
      4  O         15.8940   -7.9640   12.1180 O.2    27  LEU27      -0.2718
      5  CB        16.8150   -6.6830    9.1770 C.3    27  LEU27       0.0284
      6  CG        18.3290   -6.8200    9.3670 C.3    27  LEU27       0.0019
      7  CD1       19.0160   -6.2430    8.1360 C.3    27  LEU27       0.0001
      8  CD2       18.7870   -6.0950   10.6080 C.3    27  LEU27       0.0001
      9  N         14.8540   -6.0440   11.5850 N.am   28  CYS28      -0.1970
     10  CA        14.7220   -5.5910   12.9720 C.3    28  CYS28       0.1712
     11  C         13.9740   -4.2740   12.9870 C.2    28  CYS28       0.2296
     12  O         13.6650   -3.6910   11.9520 O.2    28  CYS28      -0.2864
     13  CB        16.1010   -5.2270   13.5680 C.3    28  CYS28       0.0983
     14  SG        16.9800   -6.5030   14.5150 S.3    28  CYS28      -0.0798
     15  N         22.7590   -6.1980   18.4260 N.3    43  HIS43      -0.1241
     16  CA        22.5420   -7.5670   17.9270 C.3    43  HIS43       0.1621
     17  C         21.8330   -7.6540   16.5910 C.2    43  HIS43       0.2264
     18  O         21.8510   -8.6930   15.9420 O.2    43  HIS43      -0.2867
     19  CB        21.8330   -8.4600   18.9600 C.3    43  HIS43       0.0745
     20  CG        20.3540   -8.2570   19.0350 C.ar   43  HIS43       0.0817
     21  ND1       19.7630   -7.4820   20.0120 N.ar   43  HIS43      -0.2268
     22  CD2       19.3590   -8.6230   18.1850 C.ar   43  HIS43       0.1154
     23  CE1       18.4670   -7.3680   19.7530 C.ar   43  HIS43       0.1986
     24  NE2       18.1950   -8.0460   18.6460 N.ar   43  HIS43      -0.2212
     25  N         26.1690  -10.2590   15.4080 N.3    47  TYR47      -0.1241
     26  CA        25.9710  -11.3490   16.3580 C.3    47  TYR47       0.1605
     27  C         26.7360  -12.5490   15.7860 C.2    47  TYR47       0.2264
     28  O         26.1760  -13.4030   15.0880 O.2    47  TYR47      -0.2867
     29  CB        24.4900  -11.6650   16.5680 C.3    47  TYR47       0.0534
     30  CG        24.3100  -12.6210   17.7330 C.ar   47  TYR47      -0.0201
     31  CD1       24.7390  -12.2630   19.0210 C.ar   47  TYR47      -0.0009
     32  CD2       23.7400  -13.8790   17.5510 C.ar   47  TYR47      -0.0009
     33  CE1       24.6040  -13.1510   20.0870 C.ar   47  TYR47       0.0417
     34  CE2       23.6020  -14.7580   18.6020 C.ar   47  TYR47       0.0417
     35  CZ        24.0470  -14.3930   19.8800 C.ar   47  TYR47       0.1957
     36  OH        23.9740  -15.3180   20.9060 O.3    47  TYR47      -0.2866
     37  N         25.6730  -16.4300   15.2340 N.3    50  TRP50      -0.1241
     38  CA        24.7690  -16.7430   14.1120 C.3    50  TRP50       0.1605
     39  C         25.3130  -16.2380   12.7750 C.2    50  TRP50       0.2264
     40  O         24.5700  -16.1570   11.7780 O.2    50  TRP50      -0.2867
     41  CB        23.3850  -16.1120   14.3580 C.3    50  TRP50       0.0550
     42  CG        22.6350  -16.6760   15.5390 C.ar   50  TRP50       0.0003
     43  CD1       22.9990  -17.7250   16.3130 C.ar   50  TRP50       0.0946
     44  CD2       21.3800  -16.2050   16.0640 C.ar   50  TRP50       0.0152
     45  NE1       22.0600  -17.9520   17.2970 N.ar   50  TRP50      -0.2442
     46  CE2       21.0550  -17.0260   17.1620 C.ar   50  TRP50       0.0810
     47  CE3       20.5030  -15.1670   15.7110 C.ar   50  TRP50       0.0012
     48  CZ2       19.8910  -16.8450   17.9170 C.ar   50  TRP50       0.0191
     49  CZ3       19.3490  -14.9890   16.4640 C.ar   50  TRP50       0.0001
     50  CH2       19.0550  -15.8220   17.5530 C.ar   50  TRP50       0.0015
     51  N         26.1250  -13.2700   11.9010 N.3    52  LYS52      -0.1245
     52  CA        25.4360  -12.0500   11.4980 C.3    52  LYS52       0.1561
     53  C         26.4460  -10.9320   11.6120 C.2    52  LYS52       0.2260
     54  O         27.0350  -10.7080   12.6820 O.2    52  LYS52      -0.2867
     55  CB        24.2420  -11.7840   12.4100 C.3    52  LYS52       0.0271
     56  CG        23.4900  -10.5160   12.0270 C.3    52  LYS52       0.0035
     57  CD        22.3030  -10.2610   12.9870 C.3    52  LYS52       0.0206
     58  CE        21.2200  -11.3470   12.8710 C.3    52  LYS52       0.1093
     59  NZ        20.0310  -11.0530   13.7570 N.3    52  LYS52      -0.1314
     60  N         28.3880   -9.4630   23.2430 N.3    92  TRP92      -0.1227
     61  CA        27.5950  -10.5060   22.5980 C.3    92  TRP92       0.1737
     62  C         27.9310  -11.9170   23.0980 C.2    92  TRP92       0.2595
     63  O         27.1500  -12.8460   22.8990 O.2    92  TRP92      -0.2718
     64  CB        27.7730  -10.4380   21.0790 C.3    92  TRP92       0.0564
     65  CG        29.1900  -10.4340   20.5990 C.ar   92  TRP92       0.0003
     66  CD1       29.9730   -9.3350   20.3760 C.ar   92  TRP92       0.0946
     67  CD2       29.9940  -11.5770   20.2680 C.ar   92  TRP92       0.0152
     68  NE1       31.2130   -9.7240   19.9230 N.ar   92  TRP92      -0.2442
     69  CE2       31.2480  -11.0930   19.8500 C.ar   92  TRP92       0.0810
     70  CE3       29.7720  -12.9550   20.2830 C.ar   92  TRP92       0.0012
     71  CZ2       32.2920  -11.9480   19.4420 C.ar   92  TRP92       0.0191
     72  CZ3       30.8200  -13.8080   19.8730 C.ar   92  TRP92       0.0001
     73  CH2       32.0470  -13.2890   19.4650 C.ar   92  TRP92       0.0015
     74  N         29.0750  -12.0840   23.7500 N.am   93  ARG93      -0.1966
     75  CA        29.4520  -13.4220   24.2260 C.3    93  ARG93       0.1729
     76  C         28.6640  -13.8940   25.4260 C.2    93  ARG93       0.2616
     77  O         28.2370  -15.0730   25.5030 O.2    93  ARG93      -0.2715
     78  CB        30.9390  -13.4300   24.5890 C.3    93  ARG93       0.0348
     79  CG        31.8470  -13.2120   23.3940 C.3    93  ARG93       0.0492
     80  CD        33.3170  -13.1830   23.7900 C.3    93  ARG93       0.2205
     81  NE        34.1970  -13.1400   22.6350 N.pl3  93  ARG93      -0.0865
     82  CZ        34.5970  -14.2270   21.9670 C.cat  93  ARG93       0.5346
     83  NH1       35.3860  -14.0990   20.9180 N.pl3  93  ARG93       0.1354
     84  NH2       34.2190  -15.4260   22.3610 N.pl3  93  ARG93       0.1354
     85  N         28.4430  -12.9750   26.3540 N.am   94  GLU94      -0.1963
     86  CA        27.8080  -13.3160   27.6080 C.3    94  GLU94       0.1733
     87  C         26.3400  -12.9840   27.8150 C.2    94  GLU94       0.2616
     88  O         25.5400  -13.8410   28.2270 O.2    94  GLU94      -0.2715
     89  CB        28.5960  -12.6570   28.7500 C.3    94  GLU94       0.0429
     90  CG        28.0360  -12.9590   30.1310 C.3    94  GLU94       0.1163
     91  CD        28.6670  -12.1320   31.2510 C.2    94  GLU94       0.3649
     92  OE1       29.2590  -11.0570   30.9920 O.co2  94  GLU94      -0.2457
     93  OE2       28.5440  -12.5580   32.4310 O.co2  94  GLU94      -0.2457
     94  N         25.9490  -11.7540   27.5180 N.am   95  ASN95      -0.1958
     95  CA        24.5820  -11.4090   27.8990 C.3    95  ASN95       0.1819
     96  C         23.9750  -10.2590   27.1410 C.2    95  ASN95       0.2621
     97  O         22.9300   -9.7360   27.5220 O.2    95  ASN95      -0.2715
     98  CB        24.6020  -11.0650   29.3940 C.3    95  ASN95       0.1195
     99  CG        25.6430   -9.9950   29.7510 C.2    95  ASN95       0.2630
    100  OD1       26.3140   -9.4520   28.8700 O.2    95  ASN95      -0.2716
    101  ND2       25.7760   -9.6840   31.0480 N.am   95  ASN95      -0.0877
    102  N         24.6060   -9.8800   26.0480 N.am   96  LEU96      -0.1977
    103  CA        24.1740   -8.7330   25.2500 C.3    96  LEU96       0.1596
    104  C         24.2430   -7.4290   26.0320 C.2    96  LEU96       0.2287
    105  O         23.4640   -6.4860   25.7590 O.2    96  LEU96      -0.2864
    106  CB        22.7600   -8.9130   24.6890 C.3    96  LEU96       0.0297
    107  CG        22.5750  -10.1220   23.7470 C.3    96  LEU96       0.0022
    108  CD1       21.1830  -10.0540   23.0890 C.3    96  LEU96       0.0001
    109  CD2       23.6140  -10.1410   22.6500 C.3    96  LEU96       0.0001
    110  N         20.6420  -15.8430   32.8400 N.3   172  ILE172     -0.1245
    111  CA        21.5720  -14.8600   32.2770 C.3   172  ILE172      0.1561
    112  C         21.9490  -13.7760   33.3090 C.2   172  ILE172      0.2260
    113  O         21.0960  -13.3260   34.0880 O.2   172  ILE172     -0.2867
    114  CB        20.9320  -14.1420   31.0360 C.3   172  ILE172      0.0252
    115  CG1       20.5700  -15.1550   29.9420 C.3   172  ILE172      0.0019
    116  CG2       21.8750  -13.0910   30.4770 C.3   172  ILE172      0.0019
    117  CD1       21.7420  -15.6290   29.0730 C.3   172  ILE172      0.0001
    118  N          4.3930   -9.1380   24.7450 N.3   192  ASP192     -0.1225
    119  CA         5.8590   -9.1560   24.6750 C.3   192  ASP192      0.1805
    120  C          6.2750   -8.8630   23.2440 C.2   192  ASP192      0.2598
    121  O          5.4850   -8.9410   22.2890 O.2   192  ASP192     -0.2718
    122  CB         6.3650  -10.5660   25.1140 C.3   192  ASP192      0.1424
    123  CG         7.8690  -10.6480   25.3090 C.2   192  ASP192      0.3668
    124  OD1        8.5610   -9.6070   25.3960 O.co2 192  ASP192     -0.2456
    125  OD2        8.3860  -11.7980   25.4090 O.co2 192  ASP192     -0.2456
    126  N          7.5320   -8.4750   23.1100 N.am  193  ALA193     -0.1966
    127  CA         8.1400   -8.2960   21.8030 C.3   193  ALA193      0.1728
    128  C          8.4950   -9.7050   21.3020 C.2   193  ALA193      0.2616
    129  O          8.4690  -10.6670   22.0940 O.2   193  ALA193     -0.2715
    130  CB         9.4090   -7.4980   21.9820 C.3   193  ALA193      0.0334
    131  N          8.7930   -9.8580   20.0070 N.am  194  CYS194     -0.1954
    132  CA         9.1950  -11.1680   19.5010 C.3   194  CYS194      0.1843
    133  C         10.1020  -10.9970   18.2970 C.2   194  CYS194      0.2625
    134  O         10.5070   -9.8810   17.9640 O.2   194  CYS194     -0.2714
    135  CB         7.9480  -11.9710   19.1410 C.3   194  CYS194      0.0997
    136  SG         8.1730  -13.8060   19.1120 S.3   194  CYS194     -0.0797
    137  N         10.4630  -12.1150   17.6620 N.am  195  GLU195     -0.1963
    138  CA        11.3050  -12.1150   16.4830 C.3   195  GLU195      0.1733
    139  C         10.8340  -11.0690   15.4690 C.2   195  GLU195      0.2616
    140  O          9.6760  -11.0970   15.0380 O.2   195  GLU195     -0.2715
    141  CB        11.2510  -13.5270   15.8700 C.3   195  GLU195      0.0429
    142  CG        11.7810  -13.6570   14.4560 C.3   195  GLU195      0.1163
    143  CD        13.2210  -13.2690   14.3350 C.2   195  GLU195      0.3649
    144  OE1       13.9910  -13.6590   15.2360 O.co2 195  GLU195     -0.2457
    145  OE2       13.5960  -12.5830   13.3410 O.co2 195  GLU195     -0.2457
    146  N         11.7230  -10.1460   15.1150 N.am  196  GLY196     -0.1955
    147  CA        11.4100   -9.0940   14.1660 C.3   196  GLY196      0.1869
    148  C         11.1970   -7.7430   14.8490 C.2   196  GLY196      0.2309
    149  O         11.3030   -6.7010   14.2030 O.2   196  GLY196     -0.2863
    150  N         13.0020   -6.8460   17.6760 N.3   198  SER198     -0.1217
    151  CA        14.1710   -6.3500   18.3830 C.3   198  SER198      0.1889
    152  C         14.8230   -5.1800   17.7000 C.2   198  SER198      0.2288
    153  O         14.6840   -4.9760   16.4900 O.2   198  SER198     -0.2866
    154  CB        15.1390   -7.4720   18.7240 C.3   198  SER198      0.2089
    155  OG        15.6510   -8.0260   17.5440 O.3   198  SER198     -0.2183
    156  N         14.4550   -2.8200   22.4680 N.3   218  VAL218     -0.1231
    157  CA        14.1340   -4.2680   22.5600 C.3   218  VAL218      0.1692
    158  C         15.4560   -5.0470   22.3570 C.2   218  VAL218      0.2593
    159  O         16.0380   -5.0140   21.2660 O.2   218  VAL218     -0.2718
    160  CB        13.1350   -4.6900   21.4740 C.3   218  VAL218      0.0266
    161  CG1       12.8420   -6.2160   21.5800 C.3   218  VAL218      0.0020
    162  CG2       11.7620   -3.9150   21.6490 C.3   218  VAL218      0.0020
    163  N         15.9040   -5.7440   23.4080 N.am  219  SER219     -0.1938
    164  CA        17.1860   -6.4300   23.3810 C.3   219  SER219      0.2055
    165  C         17.1210   -7.9420   23.3710 C.2   219  SER219      0.2643
    166  O         17.6730   -8.5430   22.4540 O.2   219  SER219     -0.2714
    167  CB        18.0280   -5.9150   24.5740 C.3   219  SER219      0.2130
    168  OG        19.3020   -6.5310   24.5830 O.3   219  SER219     -0.2179
    169  N         16.4900   -8.5670   24.3680 N.am  220  TRP220     -0.1959
    170  CA        16.4430  -10.0220   24.3510 C.3   220  TRP220      0.1771
    171  C         15.3460  -10.5940   25.2130 C.2   220  TRP220      0.2620
    172  O         14.7350   -9.8840   26.0190 O.2   220  TRP220     -0.2715
    173  CB        17.8370  -10.5910   24.7810 C.3   220  TRP220      0.0590
    174  CG        18.2980  -10.2390   26.1900 C.ar  220  TRP220      0.0006
    175  CD1       18.9950   -9.1400   26.5750 C.ar  220  TRP220      0.0946
    176  CD2       18.1280  -11.0270   27.3790 C.ar  220  TRP220      0.0152
    177  NE1       19.2810   -9.1900   27.9170 N.ar  220  TRP220     -0.2442
    178  CE2       18.7600  -10.3410   28.4310 C.ar  220  TRP220      0.0810
    179  CE3       17.5080  -12.2500   27.6510 C.ar  220  TRP220      0.0012
    180  CZ2       18.7920  -10.8270   29.7350 C.ar  220  TRP220      0.0191
    181  CZ3       17.5450  -12.7230   28.9400 C.ar  220  TRP220      0.0001
    182  CH2       18.1810  -12.0140   29.9680 C.ar  220  TRP220      0.0015
    183  N         15.1180  -11.8950   25.0470 N.am  221  GLY221     -0.1940
    184  CA        14.1170  -12.5960   25.8490 C.3   221  GLY221      0.2014
    185  C         14.3100  -14.0750   25.5840 C.2   221  GLY221      0.2639
    186  O         15.0960  -14.4570   24.7300 O.2   221  GLY221     -0.2714
    187  N         13.6130  -14.9040   26.3420 N.am  222  GLU222     -0.1963
    188  CA        13.6950  -16.3400   26.1690 C.3   222  GLU222      0.1733
    189  C         12.2810  -16.7120   25.7350 C.2   222  GLU222      0.2617
    190  O         11.3320  -16.6730   26.5140 O.2   222  GLU222     -0.2715
    191  CB        14.1450  -16.9460   27.4930 C.3   222  GLU222      0.0429
    192  CG        15.5780  -16.4640   27.8150 C.3   222  GLU222      0.1163
    193  CD        16.0150  -16.6370   29.2720 C.2   222  GLU222      0.3649
    194  OE1       15.4040  -16.0260   30.1800 O.co2 222  GLU222     -0.2457
    195  OE2       16.9970  -17.3820   29.4890 O.co2 222  GLU222     -0.2457
    196  N         12.1470  -17.0120   24.4560 N.am  223  GLY223     -0.1940
    197  CA        10.8300  -17.2880   23.9240 C.3   223  GLY223      0.2014
    198  C         10.1480  -15.9310   23.7900 C.2   223  GLY223      0.2639
    199  O         10.8100  -14.8900   23.8190 O.2   223  GLY223     -0.2714
    200  N          8.8370  -15.9390   23.6190 N.am  224  CYS224     -0.1967
    201  CA         8.0700  -14.7110   23.5070 C.3   224  CYS224      0.1712
    202  C          6.7760  -14.9050   24.2740 C.2   224  CYS224      0.2296
    203  O          6.0650  -15.8900   24.0880 O.2   224  CYS224     -0.2864
    204  CB         7.7450  -14.4070   22.0460 C.3   224  CYS224      0.0983
    205  SG         9.1400  -14.2710   20.8870 S.3   224  CYS224     -0.0798
    206  N         10.3630  -12.4540   31.0450 N.3   230  TYR230     -0.1227
    207  CA        10.1810  -11.0520   30.7910 C.3   230  TYR230      0.1736
    208  C         11.0500  -10.5960   29.6410 C.2   230  TYR230      0.2596
    209  O         12.0460  -11.2070   29.3170 O.2   230  TYR230     -0.2718
    210  CB        10.5790  -10.2660   32.0430 C.3   230  TYR230      0.0548
    211  CG         9.7260  -10.5960   33.2200 C.ar  230  TYR230     -0.0200
    212  CD1        8.5030   -9.9770   33.3990 C.ar  230  TYR230     -0.0009
    213  CD2       10.0750  -11.6350   34.0630 C.ar  230  TYR230     -0.0009
    214  CE1        7.6370  -10.3920   34.3890 C.ar  230  TYR230      0.0417
    215  CE2        9.2140  -12.0690   35.0350 C.ar  230  TYR230      0.0417
    216  CZ         7.9950  -11.4450   35.1960 C.ar  230  TYR230      0.1957
    217  OH         7.1010  -11.9000   36.1590 O.3   230  TYR230     -0.2866
    218  N         10.6580   -9.5040   29.0070 N.am  231  GLY231     -0.1942
    219  CA        11.4850   -8.9790   27.9480 C.3   231  GLY231      0.2014
    220  C         12.5430   -8.0800   28.5460 C.2   231  GLY231      0.2639
    221  O         12.2880   -7.3840   29.5290 O.2   231  GLY231     -0.2714
    222  N         13.7480   -8.1520   27.9860 N.am  232  PHE232     -0.1959
    223  CA        14.8400   -7.3100   28.4360 C.3   232  PHE232      0.1771
    224  C         15.1160   -6.2350   27.4040 C.2   232  PHE232      0.2619
    225  O         15.0380   -6.4570   26.2010 O.2   232  PHE232     -0.2715
    226  CB        16.0740   -8.1470   28.7310 C.3   232  PHE232      0.0574
    227  CG        15.9540   -8.9120   30.0180 C.ar  232  PHE232     -0.0200
    228  CD1       15.1980  -10.0570   30.0800 C.ar  232  PHE232     -0.0042
    229  CD2       16.5420   -8.4250   31.1790 C.ar  232  PHE232     -0.0042
    230  CE1       15.0110  -10.7330   31.3090 C.ar  232  PHE232     -0.0003
    231  CE2       16.3770   -9.0830   32.3970 C.ar  232  PHE232     -0.0003
    232  CZ        15.6000  -10.2400   32.4440 C.ar  232  PHE232     -0.0000
    233  N         15.4520   -5.0590   27.9350 N.am  233  TYR233     -0.1974
    234  CA        15.6640   -3.8720   27.1440 C.3   233  TYR233      0.1639
    235  C         16.9400   -3.1580   27.5220 C.2   233  TYR233      0.2290
    236  O         17.3130   -3.0970   28.7000 O.2   233  TYR233     -0.2864
    237  CB        14.4910   -2.9200   27.4020 C.3   233  TYR233      0.0560
    238  CG        13.1420   -3.4990   27.0390 C.ar  233  TYR233     -0.0198
    239  CD1       12.4770   -4.3970   27.8870 C.ar  233  TYR233     -0.0009
    240  CD2       12.5610   -3.2300   25.8050 C.ar  233  TYR233     -0.0009
    241  CE1       11.2930   -4.9850   27.4820 C.ar  233  TYR233      0.0417
    242  CE2       11.3560   -3.8280   25.4080 C.ar  233  TYR233      0.0417
    243  CZ        10.7460   -4.7030   26.2560 C.ar  233  TYR233      0.1957
    244  OH         9.5760   -5.3430   25.8780 O.3   233  TYR233     -0.2866
@<TRIPOS>BOND
     1     7     6    1
     2     1     2    1
     3     5     6    1
     4     5     2    1
     5     6     8    1
     6     2     3    1
     7     3     9   am
     8     3     4    2
     9    52    53    1
    10    52    51    1
    11    52    55    1
    12     9    10    1
    13    53    54    2
    14    40    39    2
    15    12    11    2
    16    56    55    1
    17    56    57    1
    18    39    38    1
    19    58    57    1
    20    58    59    1
    21    10    11    1
    22    10    13    1
    23   145   143   ar
    24    13    14    1
    25    38    41    1
    26    38    37    1
    27   147   148    1
    28   147   146    1
    29   149   148    2
    30   143   142    1
    31   143   144   ar
    32    41    42    1
    33   142   141    1
    34   140   139    2
    35    28    27    2
    36   146   139   am
    37    25    26    1
    38   139   138    1
    39    42    44   ar
    40    42    43   ar
    41    47    44   ar
    42    47    49   ar
    43    27    26    1
    44   141   138    1
    45    18    17    2
    46    44    46   ar
    47    43    45   ar
    48    26    29    1
    49    49    50   ar
    50   138   137    1
    51   153   152    2
    52    29    30    1
    53    17    16    1
    54    46    45   ar
    55    46    48   ar
    56   155   154    1
    57    32    30   ar
    58    32    34   ar
    59    50    48   ar
    60   137   133   am
    61   150   151    1
    62   152   151    1
    63    30    31   ar
    64    16    15    1
    65    16    19    1
    66   134   133    2
    67    22    24   ar
    68    22    20   ar
    69   133   132    1
    70   151   154    1
    71    34    35   ar
    72    24    23   ar
    73    19    20    1
    74    31    33   ar
    75    20    21   ar
    76   136   135    1
    77   136   205    1
    78   135   132    1
    79    71    73   ar
    80    71    69   ar
    81    73    72   ar
    82   132   131    1
    83    23    21   ar
    84    69    68   ar
    85    69    67   ar
    86    72    70   ar
    87    35    33   ar
    88    35    36    1
    89    68    66   ar
    90   131   128   am
    91    67    70   ar
    92    67    65   ar
    93    66    65   ar
    94    65    64    1
    95   205   204    1
    96    83    82    1
    97    64    61    1
    98   159   158    2
    99   128   127    1
   100   128   129    2
   101   160   161    1
   102   160   162    1
   103   160   157    1
   104   127   130    1
   105   127   126    1
   106    82    84    1
   107    82    81    2
   108   204   201    1
   109   121   120    2
   110   158   157    1
   111   158   163   am
   112   166   165    2
   113   156   157    1
   114    61    62    1
   115    61    60    1
   116    81    80    1
   117   109   107    1
   118    63    62    2
   119   108   107    1
   120    62    74   am
   121   126   120   am
   122   120   119    1
   123   165   164    1
   124   165   169   am
   125   164   163    1
   126   164   167    1
   127    79    80    1
   128    79    78    1
   129   201   200    1
   130   201   202    1
   131   200   198   am
   132   107   106    1
   133    74    75    1
   134   198   199    2
   135   198   197    1
   136   197   196    1
   137   203   202    2
   138    75    78    1
   139    75    76    1
   140   170   169    1
   141   170   173    1
   142   170   171    1
   143   196   189   am
   144   167   168    1
   145   119   118    1
   146   119   122    1
   147   106   103    1
   148   186   185    2
   149   173   174    1
   150   183   171   am
   151   183   184    1
   152   122   123    1
   153   171   172    2
   154   103   104    1
   155   103   102    1
   156   123   124   ar
   157   123   125   ar
   158   242   240   ar
   159   242   243   ar
   160    76    77    2
   161    76    85   am
   162   185   184    1
   163   185   187   am
   164   189   188    1
   165   189   190    2
   166   105   104    2
   167   240   238   ar
   168   244   243    1
   169   102    96   am
   170   188   187    1
   171   188   191    1
   172   174   175   ar
   173   174   176   ar
   174   225   224    2
   175   243   241   ar
   176    85    86    1
   177   175   177   ar
   178   238   237    1
   179   238   239   ar
   180    96    97    2
   181    96    95    1
   182   234   237    1
   183   234   235    1
   184   234   233    1
   185   176   179   ar
   186   176   178   ar
   187   224   233   am
   188   224   223    1
   189   241   239   ar
   190   191   192    1
   191    94    87   am
   192    94    95    1
   193   235   236    2
   194    86    87    1
   195    86    89    1
   196   179   181   ar
   197    87    88    2
   198   192   193    1
   199    95    98    1
   200   177   178   ar
   201   219   220    1
   202   219   218    1
   203   222   223    1
   204   222   220   am
   205   178   180   ar
   206   223   226    1
   207   220   221    2
   208   226   227    1
   209    89    90    1
   210   100    99    2
   211   181   182   ar
   212   218   208   am
   213   117   115    1
   214   193   195   ar
   215   193   194   ar
   216   209   208    2
   217    98    99    1
   218   208   207    1
   219   180   182   ar
   220    99   101   am
   221   115   114    1
   222   227   228   ar
   223   227   229   ar
   224   228   230   ar
   225    90    91    1
   226   116   114    1
   227   207   206    1
   228   207   210    1
   229    92    91   ar
   230   114   111    1
   231   229   231   ar
   232    91    93   ar
   233   230   232   ar
   234   210   211    1
   235   111   110    1
   236   111   112    1
   237   231   232   ar
   238   211   212   ar
   239   211   213   ar
   240   112   113    2
   241   212   214   ar
   242   213   215   ar
   243   214   216   ar
   244   215   216   ar
   245   216   217    1
