@<TRIPOS>MOLECULE
tmp/1vztB01.pdb
 120 118 0 0 0
SMALL
GASTEIGER

@<TRIPOS>ATOM
      1  N         17.4290   18.8260    1.2930 N.3   114  TRP114     -0.1241
      2  CA        16.3750   17.8430    1.5310 C.3   114  TRP114      0.1605
      3  C         16.7170   16.5120    0.8630 C.2   114  TRP114      0.2264
      4  O         16.3300   15.4450    1.3450 O.2   114  TRP114     -0.2867
      5  CB        15.0140   18.3490    1.0230 C.3   114  TRP114      0.0550
      6  CG        14.9280   18.5830   -0.4610 C.ar  114  TRP114      0.0003
      7  CD1       15.1500   19.7590   -1.1250 C.ar  114  TRP114      0.0946
      8  CD2       14.6010   17.6120   -1.4660 C.ar  114  TRP114      0.0152
      9  NE1       14.9790   19.5800   -2.4770 N.ar  114  TRP114     -0.2442
     10  CE2       14.6440   18.2730   -2.7150 C.ar  114  TRP114      0.0810
     11  CE3       14.2760   16.2480   -1.4320 C.ar  114  TRP114      0.0012
     12  CZ2       14.3740   17.6150   -3.9230 C.ar  114  TRP114      0.0191
     13  CZ3       14.0070   15.5930   -2.6330 C.ar  114  TRP114      0.0001
     14  CH2       14.0580   16.2810   -3.8630 C.ar  114  TRP114      0.0015
     15  N         16.6940   12.9300    2.8790 N.3   118  SER118     -0.1217
     16  CA        16.0220   11.7320    2.3930 C.3   118  SER118      0.1889
     17  C         16.9640   10.5400    2.2240 C.2   118  SER118      0.2288
     18  O         16.6360    9.4210    2.6240 O.2   118  SER118     -0.2866
     19  CB        15.3320   12.0240    1.0550 C.3   118  SER118      0.2089
     20  OG        14.6900   10.8680    0.5390 O.3   118  SER118     -0.2183
     21  N         18.8120    8.7380    5.4420 N.3   121  ARG121     -0.1245
     22  CA        18.0030    7.8200    6.2380 C.3   121  ARG121      0.1563
     23  C         18.5730    6.4100    6.1230 C.2   121  ARG121      0.2260
     24  O         18.5220    5.6310    7.0740 O.2   121  ARG121     -0.2867
     25  CB        16.5490    7.8030    5.7500 C.3   121  ARG121      0.0307
     26  CG        15.7700    9.0830    6.0050 C.3   121  ARG121      0.0489
     27  CD        14.3290    8.9250    5.5410 C.3   121  ARG121      0.2205
     28  NE        14.2340    8.7200    4.0970 N.pl3 121  ARG121     -0.0865
     29  CZ        13.1140    8.3830    3.4640 C.cat 121  ARG121      0.5346
     30  NH1       11.9940    8.2090    4.1490 N.pl3 121  ARG121      0.1354
     31  NH2       13.1110    8.2330    2.1430 N.pl3 121  ARG121      0.1354
     32  N          8.0750    6.7910    4.7650 N.3   144  ASP144     -0.1239
     33  CA         8.1150    8.2400    4.6180 C.3   144  ASP144      0.1674
     34  C          7.1040    8.7430    5.6470 C.2   144  ASP144      0.2266
     35  O          6.2010    7.9990    6.0410 O.2   144  ASP144     -0.2867
     36  CB         7.6420    8.6380    3.2210 C.3   144  ASP144      0.1410
     37  CG         8.7590    8.6510    2.2030 C.2   144  ASP144      0.3668
     38  OD1        9.8150    8.0140    2.4360 O.co2 144  ASP144     -0.2456
     39  OD2        8.5710    9.2980    1.1620 O.co2 144  ASP144     -0.2456
     40  N          4.9360    1.3750   -6.6820 N.3   166  GLN166     -0.1245
     41  CA         4.5960    2.7890   -6.7540 C.3   166  GLN166      0.1566
     42  C          3.2730    2.9630   -7.5090 C.2   166  GLN166      0.2260
     43  O          3.1070    2.4660   -8.6220 O.2   166  GLN166     -0.2867
     44  CB         5.7330    3.5500   -7.4270 C.3   166  GLN166      0.0367
     45  CG         5.9540    4.9250   -6.8410 C.3   166  GLN166      0.0905
     46  CD         5.3760    6.0200   -7.6990 C.2   166  GLN166      0.2608
     47  OE1        4.4210    5.8020   -8.4460 O.2   166  GLN166     -0.2717
     48  NE2        5.9400    7.2140   -7.5880 N.am  166  GLN166     -0.0878
     49  N          8.3490    1.9400   -4.7610 N.3   199  HIS199     -0.1226
     50  CA         8.2400    3.2280   -4.0770 C.3   199  HIS199      0.1752
     51  C          9.1470    3.2510   -2.8450 C.2   199  HIS199      0.2596
     52  O          9.1150    2.3360   -2.0290 O.2   199  HIS199     -0.2718
     53  CB         6.7830    3.4560   -3.6520 C.3   199  HIS199      0.0759
     54  CG         6.4560    4.8820   -3.3290 C.ar  199  HIS199      0.0818
     55  ND1        5.2040    5.2780   -2.9060 N.ar  199  HIS199     -0.2268
     56  CD2        7.2030    6.0090   -3.4030 C.ar  199  HIS199      0.1154
     57  CE1        5.1940    6.5890   -2.7380 C.ar  199  HIS199      0.1986
     58  NE2        6.3940    7.0570   -3.0340 N.ar  199  HIS199     -0.2212
     59  N          9.9540    4.2990   -2.7080 N.am  200  ALA200     -0.1966
     60  CA        10.8630    4.4050   -1.5660 C.3   200  ALA200      0.1728
     61  C         10.1500    4.8300   -0.2860 C.2   200  ALA200      0.2616
     62  O         10.7660    4.8790    0.7780 O.2   200  ALA200     -0.2715
     63  CB        11.9840    5.3950   -1.8750 C.3   200  ALA200      0.0334
     64  N          8.8610    5.1420   -0.3890 N.am  201  ALA201     -0.1977
     65  CA         8.0880    5.5760    0.7750 C.3   201  ALA201      0.1597
     66  C          7.7710    4.4290    1.7270 C.2   201  ALA201      0.2287
     67  O          7.3840    4.6590    2.8710 O.2   201  ALA201     -0.2864
     68  CB         6.7930    6.2580    0.3260 C.3   201  ALA201      0.0319
     69  N         16.1780   10.1760   -8.7750 N.3   233  TRP233     -0.1227
     70  CA        15.2290   10.0840   -7.6730 C.3   233  TRP233      0.1737
     71  C         15.8500    9.6090   -6.3690 C.2   233  TRP233      0.2595
     72  O         15.2480    8.8640   -5.5970 O.2   233  TRP233     -0.2718
     73  CB        14.0340    9.2100   -8.0650 C.3   233  TRP233      0.0564
     74  CG        13.2210    9.8690   -9.1260 C.ar  233  TRP233      0.0003
     75  CD1       13.1680    9.5380  -10.4470 C.ar  233  TRP233      0.0946
     76  CD2       12.4210   11.0450   -8.9740 C.ar  233  TRP233      0.0152
     77  NE1       12.3870   10.4380  -11.1330 N.ar  233  TRP233     -0.2442
     78  CE2       11.9160   11.3760  -10.2500 C.ar  233  TRP233      0.0810
     79  CE3       12.0850   11.8570   -7.8800 C.ar  233  TRP233      0.0012
     80  CZ2       11.0920   12.4850  -10.4670 C.ar  233  TRP233      0.0191
     81  CZ3       11.2630   12.9620   -8.0940 C.ar  233  TRP233      0.0001
     82  CH2       10.7770   13.2640   -9.3800 C.ar  233  TRP233      0.0015
     83  N         17.0810   10.0540   -6.1570 N.am  234  HIS234     -0.1961
     84  CA        17.8280    9.7890   -4.9470 C.3   234  HIS234      0.1787
     85  C         17.7370    8.3810   -4.3790 C.2   234  HIS234      0.2620
     86  O         17.9920    7.4120   -5.0990 O.2   234  HIS234     -0.2715
     87  CB        17.4090   10.8480   -3.9350 C.3   234  HIS234      0.0785
     88  CG        17.1580   12.1790   -4.5740 C.ar  234  HIS234      0.0821
     89  ND1       15.9120   12.5660   -5.0190 N.ar  234  HIS234     -0.2267
     90  CD2       18.0160   13.1460   -4.9780 C.ar  234  HIS234      0.1154
     91  CE1       16.0120   13.7100   -5.6710 C.ar  234  HIS234      0.1986
     92  NE2       17.2800   14.0830   -5.6630 N.ar  234  HIS234     -0.2212
     93  N         17.3870    8.2560   -3.0980 N.am  235  ASP235     -0.1957
     94  CA        17.3170    6.9370   -2.4870 C.3   235  ASP235      0.1840
     95  C         16.3970    5.9610   -3.2010 C.2   235  ASP235      0.2621
     96  O         16.6230    4.7510   -3.1510 O.2   235  ASP235     -0.2715
     97  CB        16.9380    7.0230   -0.9970 C.3   235  ASP235      0.1450
     98  CG        15.8490    8.0380   -0.7170 C.2   235  ASP235      0.3671
     99  OD1       16.0640    9.2330   -1.0070 O.co2 235  ASP235     -0.2456
    100  OD2       14.7860    7.6420   -0.1910 O.co2 235  ASP235     -0.2456
    101  N         15.3710    6.4690   -3.8760 N.am  236  GLU236     -0.1977
    102  CA        14.4460    5.5920   -4.5860 C.3   236  GLU236      0.1602
    103  C         15.1120    4.9460   -5.7990 C.2   236  GLU236      0.2287
    104  O         14.8200    3.8020   -6.1460 O.2   236  GLU236     -0.2864
    105  CB        13.2130    6.3720   -5.0370 C.3   236  GLU236      0.0415
    106  CG        12.0950    5.4990   -5.5730 C.3   236  GLU236      0.1163
    107  CD        10.8340    6.2930   -5.8190 C.2   236  GLU236      0.3649
    108  OE1       10.7360    6.9470   -6.8780 O.co2 236  GLU236     -0.2457
    109  OE2        9.9500    6.2800   -4.9380 O.co2 236  GLU236     -0.2457
    110  N         10.0770   22.3600    2.1730 N.3   284  ARG284     -0.1245
    111  CA        11.4700   22.2360    1.7520 C.3   284  ARG284      0.1563
    112  C         12.1010   23.6220    1.6220 C.2   284  ARG284      0.2260
    113  O         11.4010   24.6130    1.4050 O.2   284  ARG284     -0.2867
    114  CB        11.5630   21.4950    0.4190 C.3   284  ARG284      0.0307
    115  CG        11.2230   20.0150    0.5110 C.3   284  ARG284      0.0489
    116  CD        11.2100   19.3700   -0.8630 C.3   284  ARG284      0.2205
    117  NE        10.9690   17.9320   -0.7940 N.pl3 284  ARG284     -0.0865
    118  CZ        10.9270   17.1380   -1.8580 C.cat 284  ARG284      0.5346
    119  NH1       11.1080   17.6470   -3.0690 N.pl3 284  ARG284      0.1354
    120  NH2       10.7180   15.8340   -1.7120 N.pl3 284  ARG284      0.1354
@<TRIPOS>BOND
     1    77    75   ar
     2    77    78   ar
     3    80    78   ar
     4    80    82   ar
     5    75    74   ar
     6    78    76   ar
     7    82    81   ar
     8    74    76   ar
     9    74    73    1
    10    76    79   ar
    11    69    70    1
    12    43    42    2
    13    47    46    2
    14    81    79   ar
    15    73    70    1
    16    46    48   am
    17    46    45    1
    18    70    71    1
    19    42    41    1
    20    44    45    1
    21    44    41    1
    22   108   107   ar
    23    41    40    1
    24    71    83   am
    25    71    72    2
    26    83    84    1
    27   104   103    2
    28   107   106    1
    29   107   109   ar
    30   103   102    1
    31    91    92   ar
    32    91    89   ar
    33    92    90   ar
    34   106   105    1
    35    86    85    2
    36   105   102    1
    37    89    88   ar
    38    90    88   ar
    39    84    85    1
    40    84    87    1
    41    49    50    1
    42   102   101    1
    43    88    87    1
    44    85    93   am
    45    50    53    1
    46    50    51    1
    47    12    14   ar
    48    12    10   ar
    49   101    95   am
    50    14    13   ar
    51    53    54    1
    52    56    54   ar
    53    56    58   ar
    54    54    55   ar
    55    95    96    2
    56    95    94    1
    57    93    94    1
    58   119   118    1
    59    58    57   ar
    60    55    57   ar
    61    51    59   am
    62    51    52    2
    63    10     9   ar
    64    10     8   ar
    65    59    60    1
    66    13    11   ar
    67    94    97    1
    68     9     7   ar
    69    63    60    1
    70   118   120    1
    71   118   117    2
    72    60    61    1
    73     8    11   ar
    74     8     6   ar
    75     7     6   ar
    76    99    98   ar
    77    97    98    1
    78   116   117    1
    79   116   115    1
    80    98   100   ar
    81     6     5    1
    82    64    61   am
    83    64    65    1
    84    61    62    2
    85    68    65    1
    86   114   115    1
    87   114   111    1
    88    20    19    1
    89    65    66    1
    90     3     4    2
    91     3     2    1
    92     5     2    1
    93    19    16    1
    94    39    37   ar
    95     1     2    1
    96   113   112    2
    97   112   111    1
    98    66    67    2
    99   111   110    1
   100    31    29    1
   101    37    38   ar
   102    37    36    1
   103    17    16    1
   104    17    18    2
   105    16    15    1
   106    36    33    1
   107    29    28    2
   108    29    30    1
   109    28    27    1
   110    33    32    1
   111    33    34    1
   112    21    22    1
   113    27    26    1
   114    34    35    2
   115    25    26    1
   116    25    22    1
   117    23    22    1
   118    23    24    2
