@<TRIPOS>MOLECULE
tmp/1w05A00.pdb
 210 193 0 0 0
SMALL
GASTEIGER

@<TRIPOS>ATOM
      1  N         49.0310   14.4700   12.3040 N.3    85  ARG85      -0.1245
      2  CA        47.7870   15.0360   12.8230 C.3    85  ARG85       0.1563
      3  C         46.6230   14.0370   12.6010 C.2    85  ARG85       0.2260
      4  O         45.9290   13.6970   13.5710 O.2    85  ARG85      -0.2867
      5  CB        47.4720   16.3520   12.0920 C.3    85  ARG85       0.0307
      6  CG        48.3180   17.5850   12.3670 C.3    85  ARG85       0.0489
      7  CD        47.7620   18.8520   11.6690 C.3    85  ARG85       0.2205
      8  NE        46.5160   19.2840   12.2730 N.pl3  85  ARG85      -0.0865
      9  CZ        45.6670   20.1840   11.7700 C.cat  85  ARG85       0.5346
     10  NH1       44.5680   20.4960   12.4430 N.pl3  85  ARG85       0.1354
     11  NH2       45.9010   20.7890   10.6290 N.pl3  85  ARG85       0.1354
     12  N         44.9680    7.3300   16.9580 N.3    89  TYR89      -0.1241
     13  CA        45.7860    7.5720   18.1020 C.3    89  TYR89       0.1605
     14  C         45.4630    6.3890   19.0300 C.2    89  TYR89       0.2264
     15  O         44.3810    6.4070   19.6200 O.2    89  TYR89      -0.2867
     16  CB        45.3560    8.8960   18.7740 C.3    89  TYR89       0.0534
     17  CG        45.7100   10.1710   18.0670 C.ar   89  TYR89      -0.0201
     18  CD1       45.3620   10.3540   16.6990 C.ar   89  TYR89      -0.0009
     19  CD2       46.2610   11.2300   18.7460 C.ar   89  TYR89      -0.0009
     20  CE1       45.6390   11.4580   16.0790 C.ar   89  TYR89       0.0417
     21  CE2       46.5790   12.4520   18.0380 C.ar   89  TYR89       0.0417
     22  CZ        46.2480   12.5130   16.7240 C.ar   89  TYR89       0.1957
     23  OH        46.5300   13.5560   15.9800 O.3    89  TYR89      -0.2866
     24  N         41.4410   11.3480   14.2690 N.3   102  CYS102     -0.1235
     25  CA        41.4680   12.7330   13.8660 C.3   102  CYS102      0.1677
     26  C         41.3800   12.7650   12.3690 C.2   102  CYS102      0.2270
     27  O         42.0300   11.9900   11.7080 O.2   102  CYS102     -0.2867
     28  CB        42.7350   13.3840   14.2840 C.3   102  CYS102      0.0956
     29  SG        42.9600   15.1430   13.7870 S.3   102  CYS102     -0.0801
     30  N         39.9510   20.7280   12.4350 N.3   181  SER181     -0.1217
     31  CA        39.9210   19.3060   12.5930 C.3   181  SER181      0.1889
     32  C         38.7690   18.8170   13.4120 C.2   181  SER181      0.2288
     33  O         38.2960   19.5460   14.2370 O.2   181  SER181     -0.2866
     34  CB        41.2300   18.8090   13.1580 C.3   181  SER181      0.2089
     35  OG        41.4190   19.2000   14.4910 O.3   181  SER181     -0.2183
     36  N         38.0330   15.5230   15.9430 N.3   183  VAL183     -0.1245
     37  CA        38.6310   14.3910   16.6050 C.3   183  VAL183      0.1561
     38  C         37.5150   13.5660   17.2700 C.2   183  VAL183      0.2260
     39  O         36.6770   14.1040   17.9870 O.2   183  VAL183     -0.2867
     40  CB        39.6460   14.8510   17.6390 C.3   183  VAL183      0.0252
     41  CG1       40.4620   13.6900   18.1090 C.3   183  VAL183      0.0019
     42  CG2       40.5990   15.8240   17.0920 C.3   183  VAL183      0.0019
     43  N         36.9840   11.2000   19.9620 N.3   185  ILE185     -0.1245
     44  CA        37.6550   10.6290   21.1130 C.3   185  ILE185      0.1561
     45  C         36.8200    9.5950   21.8870 C.2   185  ILE185      0.2260
     46  O         35.6840    9.8350   22.2590 O.2   185  ILE185     -0.2867
     47  CB        38.1360   11.6730   22.0250 C.3   185  ILE185      0.0252
     48  CG1       38.9110   12.7830   21.2820 C.3   185  ILE185      0.0019
     49  CG2       39.0390   11.0730   23.0660 C.3   185  ILE185      0.0019
     50  CD1       39.1740   14.0220   22.1830 C.3   185  ILE185      0.0001
     51  N         36.7260    7.7050   25.4960 N.3   187  TYR187     -0.1241
     52  CA        37.2470    7.5980   26.8620 C.3   187  TYR187      0.1605
     53  C         36.5140    6.3750   27.4560 C.2   187  TYR187      0.2264
     54  O         35.3080    6.4630   27.7670 O.2   187  TYR187     -0.2867
     55  CB        36.9920    8.8800   27.7280 C.3   187  TYR187      0.0534
     56  CG        37.9780   10.0510   27.5560 C.ar  187  TYR187     -0.0201
     57  CD1       37.5820   11.1390   26.8170 C.ar  187  TYR187     -0.0009
     58  CD2       39.2480   10.1150   28.1920 C.ar  187  TYR187     -0.0009
     59  CE1       38.3480   12.2440   26.6290 C.ar  187  TYR187      0.0417
     60  CE2       40.0920   11.3420   28.0220 C.ar  187  TYR187      0.0417
     61  CZ        39.6020   12.3860   27.1970 C.ar  187  TYR187      0.1957
     62  OH        40.2310   13.6620   26.8210 O.3   187  TYR187     -0.2866
     63  N         43.0240   14.3840   31.6610 N.3   209  PHE209     -0.1241
     64  CA        43.8360   15.3100   30.8880 C.3   209  PHE209      0.1605
     65  C         43.9750   16.6050   31.6950 C.2   209  PHE209      0.2264
     66  O         43.0210   17.1210   32.2830 O.2   209  PHE209     -0.2867
     67  CB        43.1600   15.5190   29.5860 C.3   209  PHE209      0.0534
     68  CG        44.0070   16.1320   28.5410 C.ar  209  PHE209     -0.0203
     69  CD1       44.8860   15.3680   27.7980 C.ar  209  PHE209     -0.0042
     70  CD2       43.9360   17.5140   28.2790 C.ar  209  PHE209     -0.0042
     71  CE1       45.7070   16.0220   26.7730 C.ar  209  PHE209     -0.0003
     72  CE2       44.7700   18.1250   27.2760 C.ar  209  PHE209     -0.0003
     73  CZ        45.6090   17.4030   26.5380 C.ar  209  PHE209     -0.0000
     74  N         45.0680   23.1600   30.5750 N.3   212  HIS212     -0.1241
     75  CA        45.5250   23.6640   29.2500 C.3   212  HIS212      0.1621
     76  C         44.5840   24.7760   28.7250 C.2   212  HIS212      0.2264
     77  O         43.4510   24.9670   29.2720 O.2   212  HIS212     -0.2867
     78  CB        45.5830   22.5460   28.2070 C.3   212  HIS212      0.0745
     79  CG        44.2410   22.0720   27.7780 C.ar  212  HIS212      0.0817
     80  ND1       43.4320   21.3320   28.5930 N.ar  212  HIS212     -0.2268
     81  CD2       43.5920   22.1950   26.6030 C.ar  212  HIS212      0.1154
     82  CE1       42.2980   21.0880   27.9580 C.ar  212  HIS212      0.1986
     83  NE2       42.3730   21.6030   26.7450 N.ar  212  HIS212     -0.2212
     84  N         42.9850   25.8090   24.9750 N.3   214  ASP214     -0.1225
     85  CA        42.8890   25.2460   23.6330 C.3   214  ASP214      0.1805
     86  C         43.7610   25.9700   22.5650 C.2   214  ASP214      0.2597
     87  O         43.9130   27.2080   22.6290 O.2   214  ASP214     -0.2718
     88  CB        41.4340   25.2950   23.1400 C.3   214  ASP214      0.1424
     89  CG        40.5950   24.2450   23.7300 C.2   214  ASP214      0.3668
     90  OD1       41.1300   23.5050   24.5700 O.co2 214  ASP214     -0.2456
     91  OD2       39.3890   24.1380   23.4030 O.co2 214  ASP214     -0.2456
     92  N         44.2890   25.1740   21.6270 N.am  215  VAL215     -0.1980
     93  CA        44.9000   25.6470   20.4020 C.3   215  VAL215      0.1595
     94  C         43.8410   25.6620   19.2790 C.2   215  VAL215      0.2287
     95  O         43.5220   24.5890   18.6660 O.2   215  VAL215     -0.2864
     96  CB        46.0440   24.7130   19.9630 C.3   215  VAL215      0.0276
     97  CG1       46.7760   25.2730   18.7320 C.3   215  VAL215      0.0022
     98  CG2       47.0370   24.5120   21.1610 C.3   215  VAL215      0.0022
     99  N         36.5800   26.5030   19.9030 N.3   219  THR219     -0.1218
    100  CA        36.3550   25.0740   19.9420 C.3   219  THR219      0.1862
    101  C         34.9170   24.7720   20.0640 C.2   219  THR219      0.2287
    102  O         34.2220   25.3970   20.8760 O.2   219  THR219     -0.2866
    103  CB        37.1780   24.5360   21.0820 C.3   219  THR219      0.1770
    104  OG1       38.5780   24.8580   20.8040 O.3   219  THR219     -0.2211
    105  CG2       37.0660   23.0440   21.1080 C.3   219  THR219      0.0375
    106  N         32.3700   21.6910   20.6620 N.3   221  LEU221     -0.1245
    107  CA        32.4990   20.3730   21.2510 C.3   221  LEU221      0.1561
    108  C         31.2420   19.6600   21.5970 C.2   221  LEU221      0.2260
    109  O         30.4080   20.1560   22.3170 O.2   221  LEU221     -0.2867
    110  CB        33.3870   20.4530   22.4770 C.3   221  LEU221      0.0270
    111  CG        33.5030   19.1770   23.3150 C.3   221  LEU221      0.0019
    112  CD1       34.2300   18.1150   22.5150 C.3   221  LEU221      0.0001
    113  CD2       34.2030   19.5150   24.6400 C.3   221  LEU221      0.0001
    114  N         29.8550   16.3010   23.5800 N.3   223  GLN223     -0.1245
    115  CA        30.2540   15.3090   24.5810 C.3   223  GLN223      0.1566
    116  C         28.9940   14.5390   25.0260 C.2   223  GLN223      0.2260
    117  O         27.9100   15.1590   25.0760 O.2   223  GLN223     -0.2867
    118  CB        30.8810   15.9390   25.8360 C.3   223  GLN223      0.0367
    119  CG        32.3500   16.3910   25.5900 C.3   223  GLN223      0.0905
    120  CD        33.2040   16.4240   26.8390 C.2   223  GLN223      0.2608
    121  OE1       32.6690   16.7220   27.9440 O.2   223  GLN223     -0.2717
    122  NE2       34.5390   16.1530   26.6780 N.am  223  GLN223     -0.0878
    123  N         34.1510   17.9180   32.5690 N.3   229  LEU229     -0.1245
    124  CA        34.9700   19.0970   32.3560 C.3   229  LEU229      0.1561
    125  C         34.8970   20.0540   33.5700 C.2   229  LEU229      0.2260
    126  O         33.8380   20.1980   34.2310 O.2   229  LEU229     -0.2867
    127  CB        34.6090   19.7620   31.1210 C.3   229  LEU229      0.0270
    128  CG        34.8130   18.9310   29.8450 C.3   229  LEU229      0.0019
    129  CD1       34.1940   19.6930   28.5870 C.3   229  LEU229      0.0001
    130  CD2       36.2940   18.7060   29.5820 C.3   229  LEU229      0.0001
    131  N         41.1030   24.9550   31.3000 N.3   268  HIS268     -0.1241
    132  CA        40.2170   23.8970   31.6540 C.3   268  HIS268      0.1621
    133  C         40.9970   22.5510   31.6610 C.2   268  HIS268      0.2264
    134  O         42.2020   22.4650   31.2700 O.2   268  HIS268     -0.2867
    135  CB        38.9820   23.9390   30.7350 C.3   268  HIS268      0.0745
    136  CG        39.3040   23.7940   29.2730 C.ar  268  HIS268      0.0817
    137  ND1       40.0950   24.6840   28.5900 N.ar  268  HIS268     -0.2268
    138  CD2       38.8680   22.8970   28.3520 C.ar  268  HIS268      0.1154
    139  CE1       40.1850   24.3080   27.3240 C.ar  268  HIS268      0.1986
    140  NE2       39.4680   23.2080   27.1620 N.ar  268  HIS268     -0.2212
    141  N         40.1260   17.8680   32.2860 N.3   270  VAL270     -0.1245
    142  CA        39.1780   16.7970   32.1920 C.3   270  VAL270      0.1561
    143  C         39.3670   15.8770   33.4400 C.2   270  VAL270      0.2260
    144  O         40.4430   15.3390   33.6340 O.2   270  VAL270     -0.2867
    145  CB        39.5150   15.9890   31.0450 C.3   270  VAL270      0.0252
    146  CG1       38.5580   14.7770   30.9670 C.3   270  VAL270      0.0019
    147  CG2       39.5190   16.7940   29.7090 C.3   270  VAL270      0.0019
    148  N         34.0970   12.1930   23.4280 N.3   279  SER279     -0.1217
    149  CA        34.4070   13.6300   23.3510 C.3   279  SER279      0.1889
    150  C         34.6990   13.8810   21.8640 C.2   279  SER279      0.2288
    151  O         35.6690   13.3830   21.3250 O.2   279  SER279     -0.2866
    152  CB        35.5990   14.0070   24.2800 C.3   279  SER279      0.2089
    153  OG        36.0950   15.3780   24.2110 O.3   279  SER279     -0.2183
    154  N         35.4420   16.9360   19.6480 N.3   281  PRO281     -0.2116
    155  CA        35.7170   18.3170   19.3620 C.3   281  PRO281      0.1372
    156  C         35.8740   18.5980   17.8570 C.2   281  PRO281      0.2244
    157  O         36.3500   17.7750   17.0970 O.2   281  PRO281     -0.2868
    158  CB        37.0300   18.5140   20.1220 C.3   281  PRO281      0.0268
    159  CG        37.7270   17.1980   20.1300 C.3   281  PRO281      0.0207
    160  CD        36.6400   16.2470   20.1800 C.3   281  PRO281      0.0892
    161  N         37.9930   21.6410   16.2390 N.3   283  PHE283     -0.1241
    162  CA        38.8810   22.7860   16.4370 C.3   283  PHE283      0.1605
    163  C         38.7660   23.7460   15.2560 C.2   283  PHE283      0.2264
    164  O         39.1210   23.3860   14.1010 O.2   283  PHE283     -0.2867
    165  CB        40.3120   22.2850   16.7230 C.3   283  PHE283      0.0534
    166  CG        40.3910   21.4200   17.9770 C.ar  283  PHE283     -0.0203
    167  CD1       40.6320   20.0360   17.8850 C.ar  283  PHE283     -0.0042
    168  CD2       40.1880   21.9680   19.2160 C.ar  283  PHE283     -0.0042
    169  CE1       40.6490   19.2590   18.9690 C.ar  283  PHE283     -0.0003
    170  CE2       40.2730   21.2030   20.3240 C.ar  283  PHE283     -0.0003
    171  CZ        40.4980   19.8430   20.2080 C.ar  283  PHE283     -0.0000
    172  N         39.9520   26.3040   13.1060 N.3   285  ASN285     -0.1240
    173  CA        41.2310   26.8700   12.7520 C.3   285  ASN285      0.1653
    174  C         41.0370   27.5120   11.3410 C.2   285  ASN285      0.2266
    175  O         40.2540   27.0450   10.4950 O.2   285  ASN285     -0.2867
    176  CB        42.3190   25.7830   12.6080 C.3   285  ASN285      0.1155
    177  CG        42.6580   25.0400   13.8640 C.2   285  ASN285      0.2627
    178  OD1       42.6730   25.6250   14.9660 O.2   285  ASN285     -0.2716
    179  ND2       42.9860   23.7040   13.7090 N.am  285  ASN285     -0.0877
    180  N         49.5700   27.3360   14.7720 N.3   315  LEU315     -0.1245
    181  CA        48.9870   26.0040   14.9880 C.3   315  LEU315      0.1561
    182  C         50.0070   24.8810   15.1210 C.2   315  LEU315      0.2260
    183  O         49.8050   23.9400   15.8810 O.2   315  LEU315     -0.2867
    184  CB        48.0820   25.6370   13.8000 C.3   315  LEU315      0.0270
    185  CG        47.3110   24.3210   13.7620 C.3   315  LEU315      0.0019
    186  CD1       46.3490   24.1830   14.9770 C.3   315  LEU315      0.0001
    187  CD2       46.5670   24.1700   12.4430 C.3   315  LEU315      0.0001
    188  N         50.2980   22.9290   18.6570 N.3   319  LEU319     -0.1245
    189  CA        49.9900   21.5000   18.7350 C.3   319  LEU319      0.1561
    190  C         51.1430   20.7530   19.3690 C.2   319  LEU319      0.2260
    191  O         50.8990   19.8990   20.2430 O.2   319  LEU319     -0.2867
    192  CB        49.6610   20.9270   17.3480 C.3   319  LEU319      0.0270
    193  CG        48.1540   20.8300   17.0370 C.3   319  LEU319      0.0019
    194  CD1       47.1690   21.5330   17.9960 C.3   319  LEU319      0.0001
    195  CD2       47.8690   21.1880   15.6320 C.3   319  LEU319      0.0001
    196  N         51.3520   21.4370   23.1180 N.3   322  LEU322     -0.1245
    197  CA        50.2600   20.8150   23.8670 C.3   322  LEU322      0.1561
    198  C         50.7020   19.3620   24.1860 C.2   322  LEU322      0.2260
    199  O         50.5050   18.8360   25.3360 O.2   322  LEU322     -0.2867
    200  CB        48.9000   20.8480   23.1220 C.3   322  LEU322      0.0270
    201  CG        47.6750   20.3860   23.9810 C.3   322  LEU322      0.0019
    202  CD1       47.4690   21.2870   25.1460 C.3   322  LEU322      0.0001
    203  CD2       46.3850   20.3570   23.2620 C.3   322  LEU322      0.0001
    204  N         48.5590   12.0880   22.8400 N.3   329  THR329     -0.1218
    205  CA        47.2380   11.4580   23.0570 C.3   329  THR329      0.1862
    206  C         47.0440   10.2350   22.1280 C.2   329  THR329      0.2287
    207  O         45.9350    9.6510   22.1690 O.2   329  THR329     -0.2866
    208  CB        46.0590   12.4860   22.8650 C.3   329  THR329      0.1770
    209  OG1       46.0020   12.9360   21.4920 O.3   329  THR329     -0.2211
    210  CG2       46.3320   13.8660   23.7410 C.3   329  THR329      0.0375
@<TRIPOS>BOND
     1   175   174    2
     2    11     9    1
     3   174   173    1
     4     7     8    1
     5     7     6    1
     6    27    26    2
     7     9     8    2
     8     9    10    1
     9     5     6    1
    10     5     2    1
    11     1     2    1
    12    26    25    1
    13    30    31    1
    14   187   185    1
    15    31    34    1
    16    31    32    1
    17     3     2    1
    18     3     4    2
    19   176   173    1
    20   176   177    1
    21   173   172    1
    22    34    35    1
    23    32    33    2
    24   179   177   am
    25   185   184    1
    26   185   186    1
    27    29    28    1
    28   184   181    1
    29   177   178    2
    30    25    24    1
    31    25    28    1
    32   164   163    2
    33   180   181    1
    34   181   182    1
    35   182   183    2
    36   163   162    1
    37   195   193    1
    38    36    37    1
    39    23    22    1
    40    20    18   ar
    41    20    22   ar
    42   161   162    1
    43   162   165    1
    44    37    38    1
    45    37    40    1
    46    18    17   ar
    47   165   166    1
    48    22    21   ar
    49    12    13    1
    50   193   192    1
    51   193   194    1
    52    42    40    1
    53   157   156    2
    54    38    39    2
    55   192   189    1
    56    40    41    1
    57   156   155    1
    58   167   166   ar
    59   167   169   ar
    60   166   168   ar
    61    21    19   ar
    62    17    19   ar
    63    17    16    1
    64    13    16    1
    65    13    14    1
    66   188   189    1
    67    95    94    2
    68    97    96    1
    69   189   190    1
    70   169   171   ar
    71    14    15    2
    72   168   170   ar
    73    94    93    1
    74   155   154    1
    75   155   158    1
    76   190   191    2
    77   154   160    1
    78    99   100    1
    79   100   101    1
    80   100   103    1
    81    43    44    1
    82    96    93    1
    83    96    98    1
    84   101   102    2
    85   158   159    1
    86   159   160    1
    87   171   170   ar
    88    93    92    1
    89   106   107    1
    90   104   103    1
    91   103   105    1
    92    44    45    1
    93    44    47    1
    94   107   108    1
    95   107   110    1
    96    48    47    1
    97    48    50    1
    98   151   150    2
    99   209   208    1
   100   108   109    2
   101    92    86   am
   102   150   149    1
   103    45    46    2
   104    47    49    1
   105   206   207    2
   106   206   205    1
   107   110   111    1
   108   112   111    1
   109    86    87    2
   110    86    85    1
   111   204   205    1
   112   208   205    1
   113   208   210    1
   114   196   197    1
   115   200   197    1
   116   200   201    1
   117    88    85    1
   118    88    89    1
   119   203   201    1
   120   111   113    1
   121   149   148    1
   122   149   152    1
   123    91    89   ar
   124   114   115    1
   125    85    84    1
   126    89    90   ar
   127   197   198    1
   128   201   202    1
   129   198   199    2
   130   153   152    1
   131   115   116    1
   132   115   118    1
   133   116   117    2
   134    51    52    1
   135   119   118    1
   136   119   120    1
   137    73    71   ar
   138    73    72   ar
   139    81    83   ar
   140    81    79   ar
   141    59    57   ar
   142    59    61   ar
   143   122   120   am
   144    83    82   ar
   145    71    69   ar
   146    57    56   ar
   147    62    61    1
   148   120   121    2
   149    52    53    1
   150    52    55    1
   151   140   139   ar
   152   140   138   ar
   153    61    60   ar
   154    72    70   ar
   155   139   137   ar
   156    53    54    2
   157    56    55    1
   158    56    58   ar
   159    79    78    1
   160    79    80   ar
   161    69    68   ar
   162    82    80   ar
   163    60    58   ar
   164    78    75    1
   165    70    68   ar
   166   138   136   ar
   167    68    67    1
   168   129   128    1
   169   137   136   ar
   170    76    75    1
   171    76    77    2
   172    75    74    1
   173   136   135    1
   174   130   128    1
   175    67    64    1
   176   147   145    1
   177   128   127    1
   178   135   132    1
   179    64    63    1
   180    64    65    1
   181   146   145    1
   182   145   142    1
   183   127   124    1
   184   134   133    2
   185   131   132    1
   186   132   133    1
   187    65    66    2
   188   142   141    1
   189   142   143    1
   190   124   123    1
   191   124   125    1
   192   143   144    2
   193   125   126    2
