@<TRIPOS>MOLECULE
tmp/1w07B00.pdb
 142 138 0 0 0
SMALL
GASTEIGER

@<TRIPOS>ATOM
      1  N         17.2880   55.5620   37.6540 N.3   305  TYR305     -0.1241
      2  CA        15.8580   55.3160   37.5500 C.3   305  TYR305      0.1605
      3  C         15.5150   53.8290   37.6910 C.2   305  TYR305      0.2264
      4  O         14.4540   53.4870   38.2120 O.2   305  TYR305     -0.2867
      5  CB        15.3140   55.8310   36.2270 C.3   305  TYR305      0.0534
      6  CG        13.8180   55.6730   36.1250 C.ar  305  TYR305     -0.0201
      7  CD1       12.9620   56.4340   36.9270 C.ar  305  TYR305     -0.0009
      8  CD2       13.2500   54.7560   35.2410 C.ar  305  TYR305     -0.0009
      9  CE1       11.5800   56.2850   36.8430 C.ar  305  TYR305      0.0417
     10  CE2       11.8700   54.5990   35.1550 C.ar  305  TYR305      0.0417
     11  CZ        11.0440   55.3630   35.9530 C.ar  305  TYR305      0.1957
     12  OH         9.6800   55.2050   35.8600 O.3   305  TYR305     -0.2866
     13  N         12.6420   52.7660   40.1350 N.3   309  ARG309     -0.1245
     14  CA        11.4390   52.1540   39.5890 C.3   309  ARG309      0.1563
     15  C         11.2270   50.6970   40.0100 C.2   309  ARG309      0.2260
     16  O         12.1160   49.8530   39.8640 O.2   309  ARG309     -0.2867
     17  CB        11.4710   52.2480   38.0650 C.3   309  ARG309      0.0307
     18  CG        10.2570   51.6500   37.3680 C.3   309  ARG309      0.0489
     19  CD         8.9800   52.4510   37.6320 C.3   309  ARG309      0.2205
     20  NE         7.8730   51.9480   36.8240 N.pl3 309  ARG309     -0.0865
     21  CZ         6.6980   52.5630   36.6830 C.cat 309  ARG309      0.5346
     22  NH1        6.4600   53.7240   37.2930 N.pl3 309  ARG309      0.1354
     23  NH2        5.7460   52.0170   35.9280 N.pl3 309  ARG309      0.1354
     24  N          8.4410   47.4230   39.6870 N.3   311  GLN311     -0.1231
     25  CA         7.2940   46.9700   38.9100 C.3   311  GLN311      0.1698
     26  C          7.2710   45.4450   38.8920 C.2   311  GLN311      0.2592
     27  O          8.2480   44.8060   38.4940 O.2   311  GLN311     -0.2718
     28  CB         7.3870   47.5240   37.4800 C.3   311  GLN311      0.0381
     29  CG         6.0570   47.5780   36.7060 C.3   311  GLN311      0.0905
     30  CD         5.1320   48.7290   37.1220 C.2   311  GLN311      0.2608
     31  OE1        4.0630   48.9310   36.5300 O.2   311  GLN311     -0.2717
     32  NE2        5.5360   49.4800   38.1420 N.am  311  GLN311     -0.0878
     33  N          6.1480   44.8700   39.3070 N.am  312  PHE312     -0.1976
     34  CA         5.9950   43.4190   39.3580 C.3   312  PHE312      0.1639
     35  C          6.8960   42.8540   40.4470 C.2   312  PHE312      0.2290
     36  O          7.5880   43.6020   41.1470 O.2   312  PHE312     -0.2864
     37  CB         6.3630   42.7680   38.0190 C.3   312  PHE312      0.0560
     38  CG         5.4530   43.1430   36.8760 C.ar  312  PHE312     -0.0200
     39  CD1        5.8710   44.0390   35.8890 C.ar  312  PHE312     -0.0042
     40  CD2        4.1940   42.5620   36.7530 C.ar  312  PHE312     -0.0042
     41  CE1        5.0510   44.3400   34.7940 C.ar  312  PHE312     -0.0003
     42  CE2        3.3640   42.8580   35.6610 C.ar  312  PHE312     -0.0003
     43  CZ         3.7900   43.7440   34.6810 C.ar  312  PHE312     -0.0000
     44  N         13.3210   47.3710   39.0530 N.3   323  VAL323     -0.1245
     45  CA        13.5240   46.8140   37.7250 C.3   323  VAL323      0.1561
     46  C         14.9710   46.4800   37.4540 C.2   323  VAL323      0.2260
     47  O         15.2630   45.5690   36.6790 O.2   323  VAL323     -0.2867
     48  CB        12.9620   47.7340   36.5940 C.3   323  VAL323      0.0252
     49  CG1       11.4510   47.8610   36.7620 C.3   323  VAL323      0.0019
     50  CG2       13.6550   49.0910   36.5950 C.3   323  VAL323      0.0019
     51  N         16.0590   42.8110   37.4790 N.3   326  TYR326     -0.1241
     52  CA        15.7070   41.8780   36.4040 C.3   326  TYR326      0.1605
     53  C         16.8630   41.6780   35.4300 C.2   326  TYR326      0.2264
     54  O         17.4600   42.6480   34.9630 O.2   326  TYR326     -0.2867
     55  CB        14.4720   42.3890   35.6510 C.3   326  TYR326      0.0534
     56  CG        13.2020   42.4220   36.4890 C.ar  326  TYR326     -0.0201
     57  CD1       12.3340   43.5160   36.4310 C.ar  326  TYR326     -0.0009
     58  CD2       12.8630   41.3580   37.3300 C.ar  326  TYR326     -0.0009
     59  CE1       11.1660   43.5520   37.1920 C.ar  326  TYR326      0.0417
     60  CE2       11.6960   41.3840   38.0910 C.ar  326  TYR326      0.0417
     61  CZ        10.8540   42.4870   38.0220 C.ar  326  TYR326      0.1957
     62  OH         9.7370   42.5420   38.8280 O.3   326  TYR326     -0.2866
     63  N         16.9690   40.9190   32.3210 N.3   328  THR328     -0.1203
     64  CA        16.7610   41.5680   31.0260 C.3   328  THR328      0.1994
     65  C         17.1720   43.0480   31.1450 C.2   328  THR328      0.2617
     66  O         17.7660   43.6240   30.2290 O.2   328  THR328     -0.2717
     67  CB        15.3000   41.5500   30.6220 C.3   328  THR328      0.1784
     68  OG1       14.5180   41.9700   31.7410 O.3   328  THR328     -0.2211
     69  CG2       14.8620   40.1470   30.1650 C.3   328  THR328      0.0376
     70  N         16.8370   43.6850   32.2640 N.am  329  GLN329     -0.1979
     71  CA        17.2010   45.0880   32.4670 C.3   329  GLN329      0.1601
     72  C         18.7340   45.1690   32.5470 C.2   329  GLN329      0.2287
     73  O         19.3480   46.0600   31.9610 O.2   329  GLN329     -0.2864
     74  CB        16.5610   45.6150   33.7670 C.3   329  GLN329      0.0394
     75  CG        16.5460   47.1490   33.9460 C.3   329  GLN329      0.0908
     76  CD        15.4840   47.8250   33.0980 C.2   329  GLN329      0.2608
     77  OE1       14.8040   47.1710   32.3100 O.2   329  GLN329     -0.2717
     78  NE2       15.3380   49.1420   33.2540 N.am  329  GLN329     -0.0878
     79  N         20.5590   44.7030   29.2540 N.3   332  ARG332     -0.1245
     80  CA        20.4070   45.8410   28.3450 C.3   332  ARG332      0.1563
     81  C         21.2070   47.0600   28.8300 C.2   332  ARG332      0.2260
     82  O         21.7730   47.8130   28.0250 O.2   332  ARG332     -0.2867
     83  CB        18.9200   46.2140   28.2230 C.3   332  ARG332      0.0307
     84  CG        18.0650   45.1440   27.5290 C.3   332  ARG332      0.0489
     85  CD        16.5900   45.2570   27.9200 C.3   332  ARG332      0.2205
     86  NE        15.9750   46.4770   27.4160 N.pl3 332  ARG332     -0.0865
     87  CZ        14.7920   46.9390   27.8170 C.cat 332  ARG332      0.5346
     88  NH1       14.0920   46.2850   28.7370 N.pl3 332  ARG332      0.1354
     89  NH2       14.3010   48.0600   27.2970 N.pl3 332  ARG332      0.1354
     90  N         14.4420   53.7260   26.4850 N.3   396  LYS396     -0.1231
     91  CA        13.4700   52.6420   26.5460 C.3   396  LYS396      0.1693
     92  C         13.5330   51.9390   27.9020 C.2   396  LYS396      0.2592
     93  O         12.5290   51.4130   28.3960 O.2   396  LYS396     -0.2718
     94  CB        13.7260   51.6170   25.4320 C.3   396  LYS396      0.0285
     95  CG        13.4720   52.1450   24.0160 C.3   396  LYS396      0.0035
     96  CD        13.2410   50.9790   23.0510 C.3   396  LYS396      0.0206
     97  CE        12.8920   51.4750   21.6480 C.3   396  LYS396      0.1093
     98  NZ        14.0500   52.1210   20.9680 N.3   396  LYS396     -0.1314
     99  N         14.7190   51.9130   28.4980 N.am  397  LEU397     -0.1966
    100  CA        14.8950   51.2780   29.7970 C.3   397  LEU397      0.1728
    101  C         14.1150   52.0160   30.8870 C.2   397  LEU397      0.2616
    102  O         13.8600   51.4630   31.9610 O.2   397  LEU397     -0.2715
    103  CB        16.3860   51.2230   30.1550 C.3   397  LEU397      0.0311
    104  CG        17.1660   50.1470   29.3850 C.3   397  LEU397      0.0022
    105  CD1       18.6600   50.3510   29.5620 C.3   397  LEU397      0.0001
    106  CD2       16.7470   48.7740   29.8850 C.3   397  LEU397      0.0001
    107  N         13.7350   53.2650   30.6100 N.am  398  CYS398     -0.1954
    108  CA        12.9840   54.0630   31.5770 C.3   398  CYS398      0.1843
    109  C         11.4690   53.9770   31.3110 C.2   398  CYS398      0.2626
    110  O         10.6860   54.7530   31.8550 O.2   398  CYS398     -0.2714
    111  CB        13.4460   55.5280   31.5440 C.3   398  CYS398      0.0997
    112  SG        15.0090   55.8430   32.2820 S.3   398  CYS398     -0.0797
    113  N         11.0540   53.0130   30.4910 N.am  399  GLY399     -0.1940
    114  CA         9.6400   52.8350   30.2070 C.3   399  GLY399      0.2014
    115  C          8.9090   54.0850   29.7340 C.2   399  GLY399      0.2639
    116  O          9.4930   54.9400   29.0740 O.2   399  GLY399     -0.2714
    117  N          7.6270   54.2010   30.0680 N.am  400  GLY400     -0.1939
    118  CA         6.8440   55.3530   29.6530 C.3   400  GLY400      0.2014
    119  C          7.4180   56.7200   29.9820 C.2   400  GLY400      0.2638
    120  O          7.4820   57.5970   29.1090 O.2   400  GLY400     -0.2714
    121  N          7.8270   56.9110   31.2360 N.am  401  HIS401     -0.1973
    122  CA         8.3800   58.1900   31.6830 C.3   401  HIS401      0.1656
    123  C          9.6200   58.6020   30.9140 C.2   401  HIS401      0.2291
    124  O          9.9560   59.7770   30.8780 O.2   401  HIS401     -0.2864
    125  CB         8.6990   58.1650   33.1930 C.3   401  HIS401      0.0771
    126  CG         7.5210   57.8630   34.0580 C.ar  401  HIS401      0.0820
    127  ND1        6.2390   58.2620   33.7470 N.ar  401  HIS401     -0.2267
    128  CD2        7.4370   57.1990   35.2330 C.ar  401  HIS401      0.1154
    129  CE1        5.4150   57.8510   34.6940 C.ar  401  HIS401      0.1986
    130  NE2        6.1170   57.2020   35.6060 N.ar  401  HIS401     -0.2212
    131  N          9.8430   58.7870   27.9240 N.3   403  TYR403     -0.1241
    132  CA         9.3730   59.5060   26.7440 C.3   403  TYR403      0.1605
    133  C          9.1970   61.0090   27.0160 C.2   403  TYR403      0.2264
    134  O          9.1060   61.8230   26.0900 O.2   403  TYR403     -0.2867
    135  CB         8.0590   58.8820   26.2610 C.3   403  TYR403      0.0534
    136  CG         7.5920   59.3540   24.8880 C.ar  403  TYR403     -0.0201
    137  CD1        8.3990   59.2150   23.7530 C.ar  403  TYR403     -0.0009
    138  CD2        6.3380   59.9340   24.7280 C.ar  403  TYR403     -0.0009
    139  CE1        7.9640   59.6540   22.4980 C.ar  403  TYR403      0.0417
    140  CE2        5.8910   60.3590   23.4920 C.ar  403  TYR403      0.0417
    141  CZ         6.6920   60.2230   22.3820 C.ar  403  TYR403      0.1957
    142  OH         6.1850   60.6290   21.1610 O.3   403  TYR403     -0.2866
@<TRIPOS>BOND
     1    98    97    1
     2   142   141    1
     3    97    96    1
     4   141   139   ar
     5   141   140   ar
     6   139   137   ar
     7    96    95    1
     8   140   138   ar
     9   137   136   ar
    10    95    94    1
    11   138   136   ar
    12   136   135    1
    13    94    91    1
    14   134   133    2
    15   135   132    1
    16    90    91    1
    17    91    92    1
    18   132   133    1
    19   132   131    1
    20    89    87    1
    21    86    87    2
    22    86    85    1
    23    84    85    1
    24    84    83    1
    25    87    88    1
    26    92    93    2
    27    92    99   am
    28    82    81    2
    29    83    80    1
    30    80    81    1
    31    80    79    1
    32    99   100    1
    33   116   115    2
    34   120   119    2
    35   104   105    1
    36   104   106    1
    37   104   103    1
    38   118   119    1
    39   118   117    1
    40   115   117   am
    41   115   114    1
    42   100   103    1
    43   100   101    1
    44   119   121   am
    45    69    67    1
    46   114   113    1
    47    66    65    2
    48   113   109   am
    49   107   101   am
    50   107   108    1
    51    67    64    1
    52    67    68    1
    53   124   123    2
    54   101   102    2
    55   123   122    1
    56    64    65    1
    57    64    63    1
    58    65    70   am
    59   121   122    1
    60   109   108    1
    61   109   110    2
    62   111   108    1
    63   111   112    1
    64   122   125    1
    65    73    72    2
    66    70    71    1
    67    77    76    2
    68    71    72    1
    69    71    74    1
    70    76    78   am
    71    76    75    1
    72   125   126    1
    73   127   126   ar
    74   127   129   ar
    75    74    75    1
    76   126   128   ar
    77    43    41   ar
    78    43    42   ar
    79   129   130   ar
    80    41    39   ar
    81    54    53    2
    82    10     8   ar
    83    10    11   ar
    84   128   130   ar
    85     8     6   ar
    86    53    52    1
    87    55    52    1
    88    55    56    1
    89    42    40   ar
    90    12    11    1
    91    39    38   ar
    92    23    21    1
    93    11     9   ar
    94     6     5    1
    95     6     7   ar
    96     5     2    1
    97    52    51    1
    98    57    56   ar
    99    57    59   ar
   100    56    58   ar
   101    31    30    2
   102    48    50    1
   103    48    49    1
   104    48    45    1
   105    47    46    2
   106    21    20    2
   107    21    22    1
   108    29    30    1
   109    29    28    1
   110    40    38   ar
   111    20    19    1
   112     9     7   ar
   113    38    37    1
   114    30    32   am
   115    59    61   ar
   116    58    60   ar
   117    18    19    1
   118    18    17    1
   119    46    45    1
   120    28    25    1
   121     2     1    1
   122     2     3    1
   123     3     4    2
   124    45    44    1
   125    37    34    1
   126    61    60   ar
   127    61    62    1
   128    17    14    1
   129    27    26    2
   130    26    25    1
   131    26    33   am
   132    25    24    1
   133    33    34    1
   134    34    35    1
   135    14    15    1
   136    14    13    1
   137    16    15    2
   138    35    36    2
