@<TRIPOS>MOLECULE
tmp/1w07B01.pdb
 194 186 0 0 0
SMALL
GASTEIGER

@<TRIPOS>ATOM
      1  N         32.3400   75.7630   17.0660 N.3   100  LEU100     -0.1245
      2  CA        33.0010   75.6720   15.7690 C.3   100  LEU100      0.1561
      3  C         34.1440   76.6640   15.6420 C.2   100  LEU100      0.2260
      4  O         35.1480   76.3810   14.9910 O.2   100  LEU100     -0.2867
      5  CB        31.9950   75.8770   14.6330 C.3   100  LEU100      0.0270
      6  CG        31.0970   74.6910   14.2660 C.3   100  LEU100      0.0019
      7  CD1       31.9630   73.4880   13.9330 C.3   100  LEU100      0.0001
      8  CD2       30.1520   74.3490   15.4080 C.3   100  LEU100      0.0001
      9  N         37.0140   74.2310   15.1620 N.3   104  MET104     -0.1245
     10  CA        37.3260   74.0180   13.7480 C.3   104  MET104      0.1570
     11  C         37.9930   75.1980   13.0410 C.2   104  MET104      0.2261
     12  O         39.0320   75.0380   12.3890 O.2   104  MET104     -0.2867
     13  CB        36.0470   73.6440   12.9890 C.3   104  MET104      0.0387
     14  CG        35.4070   72.3300   13.4390 C.3   104  MET104      0.0595
     15  SD        36.4680   70.8780   13.2240 S.3   104  MET104     -0.1393
     16  CE        35.9540   70.3330   11.5500 C.3   104  MET104      0.0692
     17  N         33.4960   76.6850    9.9730 N.3   134  TYR134     -0.1241
     18  CA        34.1380   75.7530    9.0440 C.3   134  TYR134      0.1605
     19  C         33.1600   75.4390    7.9110 C.2   134  TYR134      0.2264
     20  O         32.2910   74.5820    8.0630 O.2   134  TYR134     -0.2867
     21  CB        34.4900   74.4640    9.7980 C.3   134  TYR134      0.0534
     22  CG        35.4580   73.5520    9.0960 C.ar  134  TYR134     -0.0201
     23  CD1       36.8270   73.8130    9.1160 C.ar  134  TYR134     -0.0009
     24  CD2       35.0080   72.4280    8.3940 C.ar  134  TYR134     -0.0009
     25  CE1       37.7200   72.9830    8.4560 C.ar  134  TYR134      0.0417
     26  CE2       35.9040   71.5970    7.7330 C.ar  134  TYR134      0.0417
     27  CZ        37.2560   71.8860    7.7660 C.ar  134  TYR134      0.1957
     28  OH        38.1430   71.0860    7.0820 O.3   134  TYR134     -0.2866
     29  N         32.7340   73.6790    4.8080 N.3   136  GLN136     -0.1231
     30  CA        33.2160   72.7020    3.8520 C.3   136  GLN136      0.1698
     31  C         32.0420   72.0350    3.1340 C.2   136  GLN136      0.2592
     32  O         31.8890   72.1640    1.9240 O.2   136  GLN136     -0.2718
     33  CB        34.0830   71.6720    4.5900 C.3   136  GLN136      0.0381
     34  CG        34.5480   70.4860    3.7600 C.3   136  GLN136      0.0905
     35  CD        35.5290   69.6050    4.5170 C.2   136  GLN136      0.2608
     36  OE1       36.6660   70.0000    4.7700 O.2   136  GLN136     -0.2717
     37  NE2       35.0840   68.4140    4.9050 N.am  136  GLN136     -0.0878
     38  N         31.2060   71.3440    3.8960 N.am  137  THR137     -0.1953
     39  CA        30.0610   70.6320    3.3450 C.3   137  THR137      0.1897
     40  C         29.1190   71.4870    2.4950 C.2   137  THR137      0.2313
     41  O         28.8900   72.6620    2.7760 O.2   137  THR137     -0.2863
     42  CB        29.2610   69.9630    4.4790 C.3   137  THR137      0.1794
     43  OG1       30.1140   69.0230    5.1390 O.3   137  THR137     -0.2208
     44  CG2       28.0370   69.2440    3.9350 C.3   137  THR137      0.0378
     45  N         29.1070   65.8830    1.2310 N.3   142  GLY142     -0.1210
     46  CA        29.4820   65.8970    2.6300 C.3   142  GLY142      0.1956
     47  C         30.6420   64.9400    2.8270 C.2   142  GLY142      0.2612
     48  O         31.7800   65.3720    3.0000 O.2   142  GLY142     -0.2717
     49  N         30.3660   63.6370    2.7840 N.am  143  SER143     -0.1952
     50  CA        31.4130   62.6400    2.9660 C.3   143  SER143      0.1924
     51  C         32.4800   62.7280    1.8760 C.2   143  SER143      0.2314
     52  O         33.6770   62.5860    2.1560 O.2   143  SER143     -0.2863
     53  CB        30.8110   61.2280    2.9860 C.3   143  SER143      0.2116
     54  OG        30.0180   61.0130    4.1430 O.3   143  SER143     -0.2180
     55  N         25.1100   73.1510    6.2460 N.3   174  TRP174     -0.1228
     56  CA        25.3750   72.5330    7.5580 C.3   174  TRP174      0.1722
     57  C         26.3470   73.2390    8.5070 C.2   174  TRP174      0.2437
     58  O         26.2480   73.0690    9.7270 O.2   174  TRP174     -0.2733
     59  CB        25.8230   71.0540    7.4280 C.3   174  TRP174      0.0563
     60  CG        24.6620   70.1120    7.3080 C.ar  174  TRP174      0.0003
     61  CD1       24.3080   69.3740    6.2220 C.ar  174  TRP174      0.0946
     62  CD2       23.6150   69.9310    8.2760 C.ar  174  TRP174      0.0152
     63  NE1       23.0930   68.7510    6.4440 N.ar  174  TRP174     -0.2442
     64  CE2       22.6460   69.0810    7.6960 C.ar  174  TRP174      0.0810
     65  CE3       23.4010   70.4160    9.5730 C.ar  174  TRP174      0.0012
     66  CZ2       21.4790   68.7080    8.3650 C.ar  174  TRP174      0.0191
     67  CZ3       22.2350   70.0440   10.2450 C.ar  174  TRP174      0.0001
     68  CH2       21.2900   69.1990    9.6350 C.ar  174  TRP174      0.0015
     69  N         27.3040   74.0360    7.9840 N.am  175  PRO175     -0.2718
     70  CA        28.2530   74.7040    8.8720 C.3   175  PRO175      0.1535
     71  C         27.6840   75.3620   10.1370 C.2   175  PRO175      0.2599
     72  O         26.8740   76.2860   10.0620 O.2   175  PRO175     -0.2715
     73  CB        28.9450   75.6890    7.9420 C.3   175  PRO175      0.0310
     74  CG        29.0590   74.8610    6.6700 C.3   175  PRO175      0.0237
     75  CD        27.6340   74.3180    6.5700 C.3   175  PRO175      0.0939
     76  N         28.1090   74.8710   11.2990 N.am  176  GLY176     -0.1955
     77  CA        27.6500   75.4350   12.5610 C.3   176  GLY176      0.1869
     78  C         28.2050   76.8430   12.7380 C.2   176  GLY176      0.2309
     79  O         29.3730   77.0810   12.4330 O.2   176  GLY176     -0.2863
     80  N         16.0510   71.3120   13.3750 N.3   227  LYS227     -0.1245
     81  CA        16.5900   69.9650   13.3810 C.3   227  LYS227      0.1561
     82  C         15.9100   69.0590   14.4000 C.2   227  LYS227      0.2260
     83  O         15.1440   69.4990   15.2520 O.2   227  LYS227     -0.2867
     84  CB        18.0970   70.0320   13.6630 C.3   227  LYS227      0.0271
     85  CG        18.9020   70.6530   12.5020 C.3   227  LYS227      0.0035
     86  CD        20.0330   71.5760   12.9560 C.3   227  LYS227      0.0206
     87  CE        19.5020   72.7720   13.7230 C.3   227  LYS227      0.1093
     88  NZ        20.5810   73.7560   13.9860 N.3   227  LYS227     -0.1314
     89  N         20.3950   70.6100   19.0670 N.3   233  TYR233     -0.1241
     90  CA        21.2160   71.3980   18.1560 C.3   233  TYR233      0.1605
     91  C         20.4800   72.6060   17.5870 C.2   233  TYR233      0.2264
     92  O         21.0350   73.3440   16.7720 O.2   233  TYR233     -0.2867
     93  CB        21.7130   70.5270   16.9930 C.3   233  TYR233      0.0534
     94  CG        23.1810   70.1660   17.0540 C.ar  233  TYR233     -0.0201
     95  CD1       23.6320   69.1060   17.8450 C.ar  233  TYR233     -0.0009
     96  CD2       24.1250   70.8900   16.3200 C.ar  233  TYR233     -0.0009
     97  CE1       24.9880   68.7780   17.9010 C.ar  233  TYR233      0.0417
     98  CE2       25.4820   70.5690   16.3720 C.ar  233  TYR233      0.0417
     99  CZ        25.9030   69.5080   17.1670 C.ar  233  TYR233      0.1957
    100  OH        27.2320   69.1660   17.2180 O.3   233  TYR233     -0.2866
    101  N         23.1350   76.3520   12.1450 N.3   238  ASN238     -0.1240
    102  CA        23.7420   75.6600   11.0110 C.3   238  ASN238      0.1653
    103  C         23.2130   76.3750    9.7830 C.2   238  ASN238      0.2266
    104  O         22.0070   76.6340    9.6690 O.2   238  ASN238     -0.2867
    105  CB        23.3520   74.1770   10.9910 C.3   238  ASN238      0.1155
    106  CG        23.9250   73.4180   12.1700 C.2   238  ASN238      0.2627
    107  OD1       23.2450   73.1980   13.1670 O.2   238  ASN238     -0.2716
    108  ND2       25.2000   73.0440   12.0710 N.am  238  ASN238     -0.0877
    109  N         24.2190   63.4250   15.6300 N.3   418  PRO418     -0.2116
    110  CA        25.0140   63.9670   14.5150 C.3   418  PRO418      0.1372
    111  C         26.4300   63.3580   14.5220 C.2   418  PRO418      0.2244
    112  O         27.1250   63.3640   13.4990 O.2   418  PRO418     -0.2868
    113  CB        25.0400   65.4540   14.8130 C.3   418  PRO418      0.0268
    114  CG        23.7280   65.6880   15.4620 C.3   418  PRO418      0.0207
    115  CD        23.6080   64.5230   16.4020 C.3   418  PRO418      0.0892
    116  N         27.4400   61.1590   11.7750 N.3   421  THR421     -0.1203
    117  CA        27.5500   61.6640   10.4140 C.3   421  THR421      0.1994
    118  C         28.6400   62.7100   10.2140 C.2   421  THR421      0.2618
    119  O         29.3440   62.6870    9.2060 O.2   421  THR421     -0.2717
    120  CB        26.1980   62.2340    9.9030 C.3   421  THR421      0.1784
    121  OG1       26.3320   62.6240    8.5300 O.3   421  THR421     -0.2211
    122  CG2       25.7780   63.4400   10.7340 C.3   421  THR421      0.0376
    123  N         28.7910   63.6300   11.1590 N.am  422  TYR422     -0.1961
    124  CA        29.8200   64.6460   10.9930 C.3   422  TYR422      0.1771
    125  C         31.1920   64.0110   11.1050 C.2   422  TYR422      0.2619
    126  O         31.3600   63.0030   11.7860 O.2   422  TYR422     -0.2715
    127  CB        29.6430   65.8100   11.9890 C.3   422  TYR422      0.0574
    128  CG        29.8160   65.4870   13.4530 C.ar  422  TYR422     -0.0198
    129  CD1       31.0030   64.9300   13.9360 C.ar  422  TYR422     -0.0009
    130  CD2       28.8150   65.8040   14.3740 C.ar  422  TYR422     -0.0009
    131  CE1       31.1840   64.7000   15.2990 C.ar  422  TYR422      0.0417
    132  CE2       28.9940   65.5800   15.7410 C.ar  422  TYR422      0.0417
    133  CZ        30.1790   65.0280   16.1930 C.ar  422  TYR422      0.1957
    134  OH        30.3620   64.7910   17.5390 O.3   422  TYR422     -0.2866
    135  N         32.1640   64.6120   10.4220 N.am  423  GLU423     -0.1963
    136  CA        33.5320   64.1050   10.3800 C.3   423  GLU423      0.1733
    137  C         33.5830   62.8010    9.5940 C.2   423  GLU423      0.2617
    138  O         34.5030   62.0010    9.7540 O.2   423  GLU423     -0.2715
    139  CB        34.0880   63.8860   11.7900 C.3   423  GLU423      0.0429
    140  CG        34.9160   65.0520   12.2920 C.3   423  GLU423      0.1163
    141  CD        36.0720   65.3690   11.3650 C.2   423  GLU423      0.3649
    142  OE1       36.9050   64.4680   11.1200 O.co2 423  GLU423     -0.2457
    143  OE2       36.1520   66.5180   10.8780 O.co2 423  GLU423     -0.2457
    144  N         32.5860   62.5940    8.7410 N.am  424  GLY424     -0.1940
    145  CA        32.5430   61.3880    7.9360 C.3   424  GLY424      0.2014
    146  C         31.4880   60.3850    8.3630 C.2   424  GLY424      0.2638
    147  O         31.3830   60.0380    9.5440 O.2   424  GLY424     -0.2714
    148  N         30.6980   59.9290    7.3940 N.am  425  ASP425     -0.1971
    149  CA        29.6460   58.9400    7.6200 C.3   425  ASP425      0.1709
    150  C         30.2710   57.6750    8.2150 C.2   425  ASP425      0.2293
    151  O         31.2840   57.1760    7.7210 O.2   425  ASP425     -0.2864
    152  CB        28.9500   58.6180    6.2950 C.3   425  ASP425      0.1436
    153  CG        27.9330   57.5040    6.4250 C.2   425  ASP425      0.3671
    154  OD1       28.3210   56.3320    6.2460 O.co2 425  ASP425     -0.2456
    155  OD2       26.7480   57.8000    6.7080 O.co2 425  ASP425     -0.2456
    156  N         29.5740   54.5100    8.1210 N.3   427  VAL427     -0.1231
    157  CA        29.7680   53.3560    7.2620 C.3   427  VAL427      0.1692
    158  C         30.9220   53.6240    6.3050 C.2   427  VAL427      0.2591
    159  O         31.7420   52.7350    6.0320 O.2   427  VAL427     -0.2718
    160  CB        28.4910   53.0410    6.4740 C.3   427  VAL427      0.0266
    161  CG1       28.7600   51.9740    5.4340 C.3   427  VAL427      0.0020
    162  CG2       27.4080   52.5840    7.4350 C.3   427  VAL427      0.0020
    163  N         30.9940   54.8490    5.7930 N.am  428  VAL428     -0.1980
    164  CA        32.0740   55.2130    4.8970 C.3   428  VAL428      0.1595
    165  C         33.4130   55.0720    5.6260 C.2   428  VAL428      0.2287
    166  O         34.3770   54.5580    5.0620 O.2   428  VAL428     -0.2864
    167  CB        31.9190   56.6670    4.3970 C.3   428  VAL428      0.0276
    168  CG1       33.1420   57.0630    3.5950 C.3   428  VAL428      0.0022
    169  CG2       30.6670   56.7950    3.5390 C.3   428  VAL428      0.0022
    170  N         34.6610   51.5650    5.9070 N.3   431  LEU431     -0.1245
    171  CA        35.1140   51.0090    4.6360 C.3   431  LEU431      0.1561
    172  C         36.5850   51.3470    4.4390 C.2   431  LEU431      0.2260
    173  O         37.3330   50.5880    3.8240 O.2   431  LEU431     -0.2867
    174  CB        34.2740   51.5660    3.4810 C.3   431  LEU431      0.0270
    175  CG        32.8360   51.0220    3.4210 C.3   431  LEU431      0.0019
    176  CD1       32.0250   51.8090    2.4030 C.3   431  LEU431      0.0001
    177  CD2       32.8780   49.5450    3.0640 C.3   431  LEU431      0.0001
    178  N         33.2160   46.1690   -3.9960 N.3   512  GLN512     -0.1245
    179  CA        31.8640   46.7270   -3.9760 C.3   512  GLN512      0.1566
    180  C         30.8040   45.6600   -3.7200 C.2   512  GLN512      0.2260
    181  O         29.8090   45.9040   -3.0300 O.2   512  GLN512     -0.2867
    182  CB        31.5640   47.4400   -5.3010 C.3   512  GLN512      0.0367
    183  CG        32.3800   48.7110   -5.5240 C.3   512  GLN512      0.0905
    184  CD        32.3130   49.6820   -4.3440 C.2   512  GLN512      0.2608
    185  OE1       31.2350   49.9860   -3.8300 O.2   512  GLN512     -0.2717
    186  NE2       33.4700   50.1850   -3.9260 N.am  512  GLN512     -0.0878
    187  N         30.8780   44.7050    0.0880 N.3   515  LEU515     -0.1245
    188  CA        30.9040   45.8350    1.0200 C.3   515  LEU515      0.1561
    189  C         30.3910   45.4980    2.4060 C.2   515  LEU515      0.2260
    190  O         31.0360   45.8370    3.3960 O.2   515  LEU515     -0.2867
    191  CB        30.1030   47.0280    0.4840 C.3   515  LEU515      0.0270
    192  CG        30.7700   47.9760   -0.5080 C.3   515  LEU515      0.0019
    193  CD1       29.9170   49.2180   -0.6440 C.3   515  LEU515      0.0001
    194  CD2       32.1610   48.3660   -0.0340 C.3   515  LEU515      0.0001
@<TRIPOS>BOND
     1   183   182    1
     2   183   184    1
     3   182   179    1
     4   184   186   am
     5   184   185    2
     6   178   179    1
     7   179   180    1
     8   180   181    2
     9   193   192    1
    10   192   194    1
    11   192   191    1
    12   187   188    1
    13   191   188    1
    14   188   189    1
    15    45    46    1
    16    51    52    2
    17    51    50    1
    18    32    31    2
    19   176   175    1
    20   189   190    2
    21    40    41    2
    22    40    39    1
    23    46    47    1
    24    49    47   am
    25    49    50    1
    26    47    48    2
    27    50    53    1
    28    53    54    1
    29   177   175    1
    30    31    30    1
    31    31    38   am
    32    39    38    1
    33    39    42    1
    34   175   174    1
    35   174   171    1
    36   169   167    1
    37   168   167    1
    38    34    35    1
    39    34    33    1
    40   173   172    2
    41    30    33    1
    42    30    29    1
    43    44    42    1
    44   167   164    1
    45   172   171    1
    46    42    43    1
    47    35    36    2
    48    35    37   am
    49   171   170    1
    50   164   165    1
    51   164   163    1
    52   166   165    2
    53   161   160    1
    54   163   158   am
    55   159   158    2
    56    61    63   ar
    57    61    60   ar
    58    55    56    1
    59   154   153   ar
    60   152   153    1
    61   152   149    1
    62   158   157    1
    63   153   155   ar
    64    63    64   ar
    65   160   157    1
    66   160   162    1
    67    75    74    1
    68    75    69    1
    69    74    73    1
    70    28    27    1
    71   157   156    1
    72    60    59    1
    73    60    62   ar
    74   148   149    1
    75   148   146   am
    76    59    56    1
    77    56    57    1
    78   149   150    1
    79    64    62   ar
    80    64    66   ar
    81   151   150    2
    82    26    27   ar
    83    26    24   ar
    84    27    25   ar
    85    19    20    2
    86    19    18    1
    87   145   146    1
    88   145   144    1
    89    73    70    1
    90    69    57   am
    91    69    70    1
    92    62    65   ar
    93   146   147    2
    94    66    68   ar
    95    24    22   ar
    96    25    23   ar
    97    57    58    2
    98   121   120    1
    99   144   137   am
   100    70    71    1
   101    18    21    1
   102    18    17    1
   103    22    23   ar
   104    22    21    1
   105   119   118    2
   106    65    67   ar
   107   137   138    2
   108   137   136    1
   109    68    67   ar
   110   104   103    2
   111   103   102    1
   112   120   117    1
   113   120   122    1
   114    72    71    2
   115    71    76   am
   116   118   117    1
   117   118   123   am
   118   136   135    1
   119   136   139    1
   120   117   116    1
   121   135   125   am
   122   143   141   ar
   123   105   102    1
   124   105   106    1
   125   124   125    1
   126   124   123    1
   127   124   127    1
   128   102   101    1
   129   125   126    2
   130   142   141   ar
   131    76    77    1
   132   141   140    1
   133    16    15    1
   134   139   140    1
   135   127   128    1
   136   108   106   am
   137   106   107    2
   138    12    11    2
   139    79    78    2
   140    85    86    1
   141    85    84    1
   142    77    78    1
   143    86    87    1
   144    13    14    1
   145    13    10    1
   146    11    10    1
   147    15    14    1
   148    80    81    1
   149    81    84    1
   150    81    82    1
   151   128   129   ar
   152   128   130   ar
   153   112   111    2
   154    87    88    1
   155    10     9    1
   156     7     6    1
   157   129   131   ar
   158     6     5    1
   159     6     8    1
   160   130   132   ar
   161    82    83    2
   162   110   111    1
   163   110   113    1
   164   110   109    1
   165     5     2    1
   166   113   114    1
   167     4     3    2
   168   131   133   ar
   169   114   115    1
   170   109   115    1
   171     3     2    1
   172   132   133   ar
   173     2     1    1
   174   133   134    1
   175    96    98   ar
   176    96    94   ar
   177    98    99   ar
   178    92    91    2
   179    93    94    1
   180    93    90    1
   181    94    95   ar
   182    99   100    1
   183    99    97   ar
   184    91    90    1
   185    95    97   ar
   186    90    89    1
