@<TRIPOS>MOLECULE
tmp/1w0cA01.pdb
 93 88 0 0 0
SMALL
GASTEIGER

@<TRIPOS>ATOM
      1  N         -7.2550  -16.2420   18.7580 N.3    12  ARG12      -0.1245
      2  CA        -7.0480  -14.9760   19.5040 C.3    12  ARG12       0.1563
      3  C         -5.8560  -14.1460   18.9940 C.2    12  ARG12       0.2260
      4  O         -5.7730  -13.9380   17.7820 O.2    12  ARG12      -0.2867
      5  CB        -7.0260  -15.2400   21.0210 C.3    12  ARG12       0.0307
      6  CG        -8.3610  -15.7970   21.5550 C.3    12  ARG12       0.0489
      7  CD        -8.3110  -16.5030   22.9400 C.3    12  ARG12       0.2205
      8  NE        -7.5920  -15.6980   23.9150 N.pl3  12  ARG12      -0.0865
      9  CZ        -8.1130  -14.6790   24.5710 C.cat  12  ARG12       0.5346
     10  NH1       -9.3660  -14.3520   24.3960 N.pl3  12  ARG12       0.1354
     11  NH2       -7.3830  -13.9810   25.4110 N.pl3  12  ARG12       0.1354
     12  N          1.6290  -19.5310   25.3210 N.3   106  SER106     -0.1217
     13  CA         1.7210  -19.1830   26.7240 C.3   106  SER106      0.1889
     14  C          0.5480  -19.7460   27.4830 C.2   106  SER106      0.2288
     15  O         -0.6020  -19.4890   27.1390 O.2   106  SER106     -0.2866
     16  CB         1.7050  -17.6740   26.8760 C.3   106  SER106      0.2089
     17  OG         1.3720  -17.3010   28.1970 O.3   106  SER106     -0.2183
     18  N         -1.4350  -19.8900   31.1890 N.3   108  PHE108     -0.1241
     19  CA        -1.7740  -18.8140   32.0990 C.3   108  PHE108      0.1605
     20  C         -2.8880  -19.2860   33.0250 C.2   108  PHE108      0.2264
     21  O         -4.0390  -19.4480   32.6230 O.2   108  PHE108     -0.2867
     22  CB        -2.1850  -17.5610   31.2880 C.3   108  PHE108      0.0534
     23  CG        -2.9000  -16.5010   32.0900 C.ar  108  PHE108     -0.0203
     24  CD1       -2.1930  -15.6530   32.9380 C.ar  108  PHE108     -0.0042
     25  CD2       -4.2810  -16.3360   31.9850 C.ar  108  PHE108     -0.0042
     26  CE1       -2.8410  -14.6730   33.6990 C.ar  108  PHE108     -0.0003
     27  CE2       -4.9490  -15.3500   32.7380 C.ar  108  PHE108     -0.0003
     28  CZ        -4.2090  -14.5190   33.5990 C.ar  108  PHE108     -0.0000
     29  N          4.1990   -9.1850   28.9530 N.3   169  ASP169     -0.1239
     30  CA         3.0240   -8.7330   29.6730 C.3   169  ASP169      0.1674
     31  C          3.2740   -7.3630   30.2550 C.2   169  ASP169      0.2266
     32  O          4.2030   -7.1890   31.0200 O.2   169  ASP169     -0.2867
     33  CB         2.7040   -9.7350   30.7680 C.3   169  ASP169      0.1410
     34  CG         1.3570   -9.5050   31.4010 C.2   169  ASP169      0.3668
     35  OD1        0.8260   -8.3720   31.3450 O.co2 169  ASP169     -0.2456
     36  OD2        0.7550  -10.4210   32.0050 O.co2 169  ASP169     -0.2456
     37  N          3.5150  -17.7510   36.5110 N.3   182  TYR182     -0.1241
     38  CA         3.2780  -17.0660   35.2520 C.3   182  TYR182      0.1605
     39  C          4.0670  -15.7680   35.1940 C.2   182  TYR182      0.2264
     40  O          4.7570  -15.5150   34.2070 O.2   182  TYR182     -0.2867
     41  CB         1.7720  -16.8140   35.0140 C.3   182  TYR182      0.0534
     42  CG         1.5160  -15.7370   33.9950 C.ar  182  TYR182     -0.0201
     43  CD1        1.4540  -16.0400   32.6200 C.ar  182  TYR182     -0.0009
     44  CD2        1.3840  -14.4050   34.3870 C.ar  182  TYR182     -0.0009
     45  CE1        1.2350  -15.0570   31.6820 C.ar  182  TYR182      0.0417
     46  CE2        1.1710  -13.4030   33.4410 C.ar  182  TYR182      0.0417
     47  CZ         1.0890  -13.7400   32.0900 C.ar  182  TYR182      0.1957
     48  OH         0.8770  -12.7460   31.1590 O.3   182  TYR182     -0.2866
     49  N          7.1950  -14.6100   32.6700 N.3   186  LYS186     -0.1245
     50  CA         7.2790  -13.4300   31.8270 C.3   186  LYS186      0.1561
     51  C          8.5230  -12.6280   32.1520 C.2   186  LYS186      0.2260
     52  O          9.1550  -12.0610   31.2570 O.2   186  LYS186     -0.2867
     53  CB         6.0110  -12.5760   31.9300 C.3   186  LYS186      0.0271
     54  CG         4.7650  -13.2380   31.3340 C.3   186  LYS186      0.0035
     55  CD         5.0040  -13.6440   29.8700 C.3   186  LYS186      0.0206
     56  CE         3.6800  -13.8310   29.1360 C.3   186  LYS186      0.1093
     57  NZ         3.8430  -14.6260   27.9020 N.3   186  LYS186     -0.1314
     58  N         -4.7620   -5.6800   28.6460 N.3   214  LEU214     -0.1231
     59  CA        -5.9630   -6.5160   28.5160 C.3   214  LEU214      0.1693
     60  C         -6.3830   -6.5830   27.0580 C.2   214  LEU214      0.2593
     61  O         -6.5860   -5.5600   26.4300 O.2   214  LEU214     -0.2718
     62  CB        -7.1190   -5.9940   29.3780 C.3   214  LEU214      0.0284
     63  CG        -6.8820   -5.7830   30.8630 C.3   214  LEU214      0.0019
     64  CD1       -8.1530   -5.2960   31.5320 C.3   214  LEU214      0.0001
     65  CD2       -6.3940   -7.0650   31.4870 C.3   214  LEU214      0.0001
     66  N         -6.4830   -7.8000   26.5340 N.am  215  SER215     -0.1938
     67  CA        -6.8360   -8.0200   25.1350 C.3   215  SER215      0.2055
     68  C         -7.8230   -9.1390   25.0110 C.2   215  SER215      0.2643
     69  O         -7.6520  -10.1980   25.6140 O.2   215  SER215     -0.2714
     70  CB        -5.6080   -8.3530   24.3040 C.3   215  SER215      0.2130
     71  OG        -4.6120   -7.3890   24.5080 O.3   215  SER215     -0.2179
     72  N         -8.8540   -8.8750   24.2190 N.am  216  VAL216     -0.1963
     73  CA        -9.9250   -9.8270   23.9150 C.3   216  VAL216      0.1727
     74  C        -10.2650  -10.6760   25.1500 C.2   216  VAL216      0.2616
     75  O        -10.0040  -11.8790   25.2170 O.2   216  VAL216     -0.2715
     76  CB        -9.6540  -10.5870   22.5750 C.3   216  VAL216      0.0290
     77  CG1       -9.0790   -9.6110   21.5380 C.3   216  VAL216      0.0023
     78  CG2       -8.7000  -11.7200   22.7590 C.3   216  VAL216      0.0023
     79  N        -10.7930   -9.9620   26.1450 N.am  217  LEU217     -0.1963
     80  CA       -11.1270  -10.4580   27.4840 C.3   217  LEU217      0.1728
     81  C        -12.2960  -11.4150   27.3920 C.2   217  LEU217      0.2616
     82  O        -13.2020  -11.2240   26.5770 O.2   217  LEU217     -0.2715
     83  CB       -11.5120   -9.2720   28.3720 C.3   217  LEU217      0.0311
     84  CG       -11.7470   -9.3850   29.8760 C.3   217  LEU217      0.0022
     85  CD1      -10.4310   -9.6990   30.6010 C.3   217  LEU217      0.0001
     86  CD2      -12.3190   -8.0730   30.3450 C.3   217  LEU217      0.0001
     87  N        -12.2810  -12.4610   28.2060 N.am  218  VAL218     -0.1977
     88  CA       -13.3730  -13.4210   28.1350 C.3   218  VAL218      0.1596
     89  C        -14.3810  -13.1140   29.2050 C.2   218  VAL218      0.2287
     90  O        -14.0290  -12.8140   30.3260 O.2   218  VAL218     -0.2864
     91  CB       -12.9040  -14.8620   28.2080 C.3   218  VAL218      0.0276
     92  CG1      -13.6440  -15.6590   27.1400 C.3   218  VAL218      0.0022
     93  CG2      -11.3620  -14.9520   27.9850 C.3   218  VAL218      0.0022
@<TRIPOS>BOND
     1     4     3    2
     2     1     2    1
     3     3     2    1
     4     2     5    1
     5     5     6    1
     6    77    76    1
     7     6     7    1
     8    76    78    1
     9    76    73    1
    10     7     8    1
    11    73    72    1
    12    73    74    1
    13     8     9    2
    14    72    68   am
    15    70    71    1
    16    70    67    1
    17    10     9    1
    18     9    11    1
    19    68    67    1
    20    68    69    2
    21    67    66    1
    22    74    75    2
    23    74    79   am
    24    12    13    1
    25    79    80    1
    26    61    60    2
    27    66    60   am
    28    82    81    2
    29    13    16    1
    30    13    14    1
    31    16    17    1
    32    60    59    1
    33    15    14    2
    34    92    91    1
    35    81    80    1
    36    81    87   am
    37    80    83    1
    38    57    56    1
    39    93    91    1
    40    88    87    1
    41    88    91    1
    42    88    89    1
    43    83    84    1
    44    59    58    1
    45    59    62    1
    46    29    30    1
    47    56    55    1
    48    89    90    2
    49    62    63    1
    50    30    31    1
    51    30    33    1
    52    55    54    1
    53    84    86    1
    54    84    85    1
    55    31    32    2
    56    33    34    1
    57    63    65    1
    58    63    64    1
    59    48    47    1
    60    18    19    1
    61    52    51    2
    62    22    23    1
    63    22    19    1
    64    54    53    1
    65    35    34   ar
    66    34    36   ar
    67    45    47   ar
    68    45    43   ar
    69    50    53    1
    70    50    51    1
    71    50    49    1
    72    25    23   ar
    73    25    27   ar
    74    47    46   ar
    75    23    24   ar
    76    19    20    1
    77    43    42   ar
    78    21    20    2
    79    27    28   ar
    80    24    26   ar
    81    46    44   ar
    82    28    26   ar
    83    42    44   ar
    84    42    41    1
    85    40    39    2
    86    41    38    1
    87    39    38    1
    88    38    37    1
