@<TRIPOS>MOLECULE
tmp/1w0kA00.pdb
 133 130 0 0 0
SMALL
GASTEIGER

@<TRIPOS>ATOM
      1  N        102.5180   67.7810   55.9060 N.3   148  ARG148     -0.1231
      2  CA       102.5340   66.6090   55.0360 C.3   148  ARG148      0.1694
      3  C        101.1100   66.1830   54.6830 C.2   148  ARG148      0.2592
      4  O        100.1880   66.3250   55.5000 O.2   148  ARG148     -0.2718
      5  CB       103.2440   65.4500   55.7400 C.3   148  ARG148      0.0321
      6  CG       102.8720   65.2940   57.2170 C.3   148  ARG148      0.0489
      7  CD       103.2640   63.9550   57.8260 C.3   148  ARG148      0.2205
      8  NE       102.7680   63.8040   59.1930 N.pl3 148  ARG148     -0.0865
      9  CZ       101.6400   63.1760   59.5180 C.cat 148  ARG148      0.5346
     10  NH1      100.8820   62.6340   58.5720 N.pl3 148  ARG148      0.1354
     11  NH2      101.2640   63.0810   60.7900 N.pl3 148  ARG148      0.1354
     12  N        100.9340   65.6780   53.4630 N.am  149  GLN149     -0.1966
     13  CA        99.6700   65.0630   53.0420 C.3   149  GLN149      0.1733
     14  C         98.4270   65.9580   53.2110 C.2   149  GLN149      0.2617
     15  O         97.3710   65.4840   53.6350 O.2   149  GLN149     -0.2715
     16  CB        99.4660   63.7100   53.7550 C.3   149  GLN149      0.0408
     17  CG       100.5560   62.6620   53.4480 C.3   149  GLN149      0.0908
     18  CD       100.9480   61.8040   54.6600 C.2   149  GLN149      0.2608
     19  OE1      101.8250   60.9400   54.5520 O.2   149  GLN149     -0.2717
     20  NE2      100.2990   62.0340   55.8020 N.am  149  GLN149     -0.0878
     21  N         98.5630   67.2440   52.8880 N.am  150  THR150     -0.1937
     22  CA        97.4200   68.1640   52.8700 C.3   150  THR150      0.2028
     23  C         97.1610   68.6920   51.4600 C.2   150  THR150      0.2643
     24  O         96.2340   69.4740   51.2420 O.2   150  THR150     -0.2714
     25  CB        97.5800   69.3350   53.8810 C.3   150  THR150      0.1808
     26  OG1       98.7930   70.0560   53.6230 O.3   150  THR150     -0.2208
     27  CG2       97.7520   68.8100   55.2990 C.3   150  THR150      0.0379
     28  N         97.9830   68.2580   50.5060 N.am  151  GLY151     -0.1939
     29  CA        97.7100   68.5080   49.1030 C.3   151  GLY151      0.2014
     30  C         98.6080   69.5270   48.4260 C.2   151  GLY151      0.2639
     31  O         98.2720   70.0230   47.3420 O.2   151  GLY151     -0.2714
     32  N         99.7460   69.8290   49.0520 N.am  152  LYS152     -0.1963
     33  CA       100.6860   70.8160   48.5200 C.3   152  LYS152      0.1728
     34  C        101.0520   70.5340   47.0610 C.2   152  LYS152      0.2617
     35  O        100.8620   71.3880   46.1980 O.2   152  LYS152     -0.2715
     36  CB       101.9500   70.9130   49.3880 C.3   152  LYS152      0.0311
     37  CG       101.7190   71.3980   50.8210 C.3   152  LYS152      0.0038
     38  CD       103.0200   71.4610   51.6340 C.3   152  LYS152      0.0206
     39  CE       103.7970   70.1440   51.6230 C.3   152  LYS152      0.1093
     40  NZ       103.2910   69.1980   52.6530 N.3   152  LYS152     -0.1314
     41  N        101.5570   69.3310   46.7960 N.am  153  THR153     -0.1937
     42  CA       102.0020   68.9530   45.4540 C.3   153  THR153      0.2028
     43  C        100.8670   69.0560   44.4400 C.2   153  THR153      0.2642
     44  O        101.0520   69.5720   43.3350 O.2   153  THR153     -0.2714
     45  CB       102.5700   67.5310   45.4540 C.3   153  THR153      0.1808
     46  OG1      103.6170   67.4370   46.4250 O.3   153  THR153     -0.2208
     47  CG2      103.2790   67.2400   44.1400 C.3   153  THR153      0.0379
     48  N         99.6950   68.5720   44.8410 N.am  154  SER154     -0.1949
     49  CA        98.5050   68.6190   44.0130 C.3   154  SER154      0.1924
     50  C         98.2070   70.0290   43.4940 C.2   154  SER154      0.2314
     51  O         97.8470   70.1830   42.3290 O.2   154  SER154     -0.2863
     52  CB        97.3140   68.0440   44.7750 C.3   154  SER154      0.2116
     53  OG        97.6350   66.7660   45.2880 O.3   154  SER154     -0.2180
     54  N         98.3550   70.3690   39.2730 N.3   158  ASP158     -0.1239
     55  CA        97.1920   70.8760   38.5540 C.3   158  ASP158      0.1674
     56  C         97.5240   72.1830   37.8260 C.2   158  ASP158      0.2266
     57  O         97.0930   72.3980   36.6970 O.2   158  ASP158     -0.2867
     58  CB        96.0120   71.0710   39.5140 C.3   158  ASP158      0.1410
     59  CG        95.4130   69.7420   40.0000 C.2   158  ASP158      0.3668
     60  OD1       96.1810   68.7870   40.2770 O.co2 158  ASP158     -0.2456
     61  OD2       94.1800   69.5550   40.1460 O.co2 158  ASP158     -0.2456
     62  N        106.9820   72.5340   53.8700 N.3   305  GLU305     -0.1245
     63  CA       106.2490   71.6380   54.7620 C.3   305  GLU305      0.1567
     64  C        106.4020   72.0560   56.2220 C.2   305  GLU305      0.2260
     65  O        107.4900   71.9600   56.7930 O.2   305  GLU305     -0.2867
     66  CB       106.7160   70.1940   54.5880 C.3   305  GLU305      0.0388
     67  CG       106.0240   69.2040   55.5140 C.3   305  GLU305      0.1160
     68  CD       106.3910   67.7710   55.1940 C.2   305  GLU305      0.3649
     69  OE1      107.3430   67.2490   55.8110 O.co2 305  GLU305     -0.2457
     70  OE2      105.7350   67.1650   54.3140 O.co2 305  GLU305     -0.2457
     71  N         90.8900   69.6440   55.1540 N.3   334  PHE334     -0.1241
     72  CA        90.9800   68.4870   54.2600 C.3   334  PHE334      0.1605
     73  C         89.9720   67.3630   54.5430 C.2   334  PHE334      0.2264
     74  O         89.3920   66.8100   53.6090 O.2   334  PHE334     -0.2867
     75  CB        92.4090   67.9240   54.2580 C.3   334  PHE334      0.0534
     76  CG        92.6710   66.9230   53.1620 C.ar  334  PHE334     -0.0203
     77  CD1       93.2740   67.3200   51.9710 C.ar  334  PHE334     -0.0042
     78  CD2       92.3230   65.5810   53.3210 C.ar  334  PHE334     -0.0042
     79  CE1       93.5240   66.3960   50.9480 C.ar  334  PHE334     -0.0003
     80  CE2       92.5620   64.6540   52.3100 C.ar  334  PHE334     -0.0003
     81  CZ        93.1660   65.0650   51.1180 C.ar  334  PHE334     -0.0000
     82  N         88.2600   70.3570   49.9210 N.3   339  ARG339     -0.1231
     83  CA        89.3670   69.9360   49.0740 C.3   339  ARG339      0.1679
     84  C         89.2360   70.6490   47.7220 C.2   339  ARG339      0.2434
     85  O         88.1960   70.5120   47.0650 O.2   339  ARG339     -0.2733
     86  CB        89.3680   68.4120   48.8990 C.3   339  ARG339      0.0321
     87  CG        89.8920   67.6430   50.1070 C.3   339  ARG339      0.0489
     88  CD        89.3600   66.2180   50.2480 C.3   339  ARG339      0.2205
     89  NE        87.8970   66.1490   50.1780 N.pl3 339  ARG339     -0.0865
     90  CZ        87.1870   65.0540   50.4270 C.cat 339  ARG339      0.5346
     91  NH1       87.8010   63.9370   50.7770 N.pl3 339  ARG339      0.1354
     92  NH2       85.8650   65.0730   50.3310 N.pl3 339  ARG339      0.1354
     93  N         90.2530   71.4190   47.3080 N.am  340  PRO340     -0.2729
     94  CA        91.5300   71.5550   48.0230 C.3   340  PRO340      0.1401
     95  C         91.3890   72.2530   49.3730 C.2   340  PRO340      0.2269
     96  O         90.4680   73.0450   49.5700 O.2   340  PRO340     -0.2865
     97  CB        92.3630   72.4180   47.0750 C.3   340  PRO340      0.0296
     98  CG        91.3630   73.2100   46.3390 C.3   340  PRO340      0.0237
     99  CD        90.2230   72.2600   46.1000 C.3   340  PRO340      0.0939
    100  N         86.9060   71.3280   44.7100 N.3   407  GLN407     -0.1231
    101  CA        87.3270   70.9240   43.3720 C.3   407  GLN407      0.1698
    102  C         88.0590   69.5850   43.3580 C.2   407  GLN407      0.2593
    103  O         88.8190   69.2640   44.2760 O.2   407  GLN407     -0.2718
    104  CB        88.2200   71.9990   42.7540 C.3   407  GLN407      0.0381
    105  CG        88.2300   72.0090   41.2320 C.3   407  GLN407      0.0905
    106  CD        89.0250   73.1600   40.6570 C.2   407  GLN407      0.2608
    107  OE1       89.6070   73.0340   39.5810 O.2   407  GLN407     -0.2717
    108  NE2       89.0510   74.2830   41.3640 N.am  407  GLN407     -0.0878
    109  N         87.8310   68.8090   42.3030 N.am  408  GLY408     -0.1942
    110  CA        88.5030   67.5370   42.1260 C.3   408  GLY408      0.2014
    111  C         89.9380   67.7180   41.6830 C.2   408  GLY408      0.2639
    112  O         90.3150   68.7730   41.1750 O.2   408  GLY408     -0.2714
    113  N         90.7380   66.6780   41.8790 N.am  409  GLN409     -0.1963
    114  CA        92.1420   66.6860   41.4940 C.3   409  GLN409      0.1733
    115  C         92.2540   66.4720   39.9990 C.2   409  GLN409      0.2616
    116  O         91.3390   65.9300   39.3850 O.2   409  GLN409     -0.2715
    117  CB        92.8710   65.5600   42.2150 C.3   409  GLN409      0.0408
    118  CG        94.0930   65.9880   42.9990 C.3   409  GLN409      0.0908
    119  CD        94.9350   64.8030   43.4380 C.2   409  GLN409      0.2608
    120  OE1       96.1500   64.7960   43.2430 O.2   409  GLN409     -0.2717
    121  NE2       94.2940   63.8010   44.0320 N.am  409  GLN409     -0.0878
    122  N         93.3730   66.9020   39.4190 N.am  410  TYR410     -0.1974
    123  CA        93.6640   66.7150   37.9870 C.3   410  TYR410      0.1639
    124  C         92.5600   67.1970   37.0350 C.2   410  TYR410      0.2290
    125  O         92.3520   66.6000   35.9760 O.2   410  TYR410     -0.2864
    126  CB        94.0140   65.2490   37.6730 C.3   410  TYR410      0.0560
    127  CG        94.9000   64.5800   38.6970 C.ar  410  TYR410     -0.0198
    128  CD1       94.3920   63.6000   39.5520 C.ar  410  TYR410     -0.0009
    129  CD2       96.2480   64.9290   38.8160 C.ar  410  TYR410     -0.0009
    130  CE1       95.2040   62.9800   40.4990 C.ar  410  TYR410      0.0417
    131  CE2       97.0680   64.3180   39.7630 C.ar  410  TYR410      0.0417
    132  CZ        96.5420   63.3400   40.5950 C.ar  410  TYR410      0.1957
    133  OH        97.3520   62.7350   41.5310 O.3   410  TYR410     -0.2866
@<TRIPOS>BOND
     1   125   124    2
     2    57    56    2
     3   124   123    1
     4   126   123    1
     5   126   127    1
     6    56    55    1
     7   123   122    1
     8    55    54    1
     9    55    58    1
    10   127   129   ar
    11   127   128   ar
    12   129   131   ar
    13   116   115    2
    14   122   115   am
    15    58    59    1
    16   128   130   ar
    17   107   106    2
    18   131   132   ar
    19   115   114    1
    20    59    61   ar
    21    59    60   ar
    22   130   132   ar
    23   132   133    1
    24   106   105    1
    25   106   108   am
    26   112   111    2
    27   105   104    1
    28   114   113    1
    29   114   117    1
    30   111   113   am
    31   111   110    1
    32   110   109    1
    33   117   118    1
    34   109   102   am
    35    51    50    2
    36   104   101    1
    37   118   119    1
    38   120   119    2
    39    44    43    2
    40   102   101    1
    41   102   103    2
    42   101   100    1
    43   119   121   am
    44    50    49    1
    45    49    52    1
    46    49    48    1
    47    47    45    1
    48    43    48   am
    49    43    42    1
    50    52    53    1
    51    45    42    1
    52    45    46    1
    53    42    41    1
    54    99    98    1
    55    99    93    1
    56    35    34    2
    57    98    97    1
    58    41    34   am
    59    34    33    1
    60    85    84    2
    61    97    94    1
    62    93    84   am
    63    93    94    1
    64    31    30    2
    65    84    83    1
    66    94    95    1
    67    30    32   am
    68    30    29    1
    69    33    32    1
    70    33    36    1
    71    86    83    1
    72    86    87    1
    73    83    82    1
    74    29    28    1
    75    95    96    2
    76    36    37    1
    77    87    88    1
    78    89    88    1
    79    89    90    2
    80    92    90    1
    81    90    91    1
    82    28    23   am
    83    37    38    1
    84    79    81   ar
    85    79    77   ar
    86    81    80   ar
    87    24    23    2
    88    23    22    1
    89    39    38    1
    90    39    40    1
    91    77    76   ar
    92    80    78   ar
    93    22    21    1
    94    22    25    1
    95    21    14   am
    96    13    14    1
    97    13    12    1
    98    13    16    1
    99    76    78   ar
   100    76    75    1
   101    14    15    2
   102    17    16    1
   103    17    18    1
   104    12     3   am
   105    74    73    2
   106    26    25    1
   107    62    63    1
   108    25    27    1
   109    75    72    1
   110    72    73    1
   111    72    71    1
   112    70    68   ar
   113    19    18    2
   114    66    63    1
   115    66    67    1
   116    18    20   am
   117     3     2    1
   118     3     4    2
   119    63    64    1
   120     2     5    1
   121     2     1    1
   122    68    67    1
   123    68    69   ar
   124     5     6    1
   125    64    65    2
   126     6     7    1
   127     7     8    1
   128    10     9    1
   129     8     9    2
   130     9    11    1
