@<TRIPOS>MOLECULE
tmp/1w0oA00.pdb
 191 181 0 0 0
SMALL
GASTEIGER

@<TRIPOS>ATOM
      1  N        -28.4790   24.9800  165.7430 N.3   200  ARG200     -0.1231
      2  CA       -28.1620   25.9320  164.6790 C.3   200  ARG200      0.1694
      3  C        -29.2630   26.0510  163.6320 C.2   200  ARG200      0.2591
      4  O        -30.3110   25.4110  163.7360 O.2   200  ARG200     -0.2718
      5  CB       -26.8910   25.5010  163.9310 C.3   200  ARG200      0.0321
      6  CG       -25.5700   25.6130  164.6760 C.3   200  ARG200      0.0489
      7  CD       -24.4200   25.4680  163.6730 C.3   200  ARG200      0.2205
      8  NE       -24.5010   26.4980  162.6370 N.pl3 200  ARG200     -0.0865
      9  CZ       -23.9030   26.4360  161.4470 C.cat 200  ARG200      0.5346
     10  NH1      -23.1590   25.3850  161.1110 N.pl3 200  ARG200      0.1354
     11  NH2      -24.0570   27.4330  160.5830 N.pl3 200  ARG200      0.1354
     12  N        -28.9870   26.8710  162.6160 N.am  201  ILE201     -0.1980
     13  CA       -29.8760   27.0780  161.4660 C.3   201  ILE201      0.1595
     14  C        -31.2390   27.6780  161.8110 C.2   201  ILE201      0.2287
     15  O        -32.2640   26.9980  161.7390 O.2   201  ILE201     -0.2864
     16  CB       -30.0910   25.7370  160.7210 C.3   201  ILE201      0.0276
     17  CG1      -28.7850   24.9270  160.7240 C.3   201  ILE201      0.0022
     18  CG2      -30.5460   25.9970  159.2900 C.3   201  ILE201      0.0022
     19  CD1      -27.5590   25.6910  160.2170 C.3   201  ILE201      0.0001
     20  N        -32.5290   23.9910  164.5560 N.3   219  GLU219     -0.1245
     21  CA       -32.2990   22.5540  164.5750 C.3   219  GLU219      0.1567
     22  C        -31.7350   22.1720  165.9360 C.2   219  GLU219      0.2260
     23  O        -30.7070   22.7110  166.3510 O.2   219  GLU219     -0.2867
     24  CB       -31.2860   22.1470  163.4940 C.3   219  GLU219      0.0388
     25  CG       -31.7460   22.3970  162.0640 C.3   219  GLU219      0.1160
     26  CD       -30.6690   22.0810  161.0260 C.2   219  GLU219      0.3649
     27  OE1      -29.6240   21.4820  161.3850 O.co2 219  GLU219     -0.2457
     28  OE2      -30.8740   22.4250  159.8420 O.co2 219  GLU219     -0.2457
     29  N        -29.6290   20.0280  167.7940 N.3   221  ARG221     -0.1245
     30  CA       -28.5590   19.1180  167.4170 C.3   221  ARG221      0.1563
     31  C        -27.9110   18.4290  168.6150 C.2   221  ARG221      0.2260
     32  O        -26.9090   18.9030  169.1450 O.2   221  ARG221     -0.2867
     33  CB       -27.4970   19.8810  166.6130 C.3   221  ARG221      0.0307
     34  CG       -28.0440   20.5150  165.3220 C.3   221  ARG221      0.0489
     35  CD       -26.9730   21.3110  164.5790 C.3   221  ARG221      0.2205
     36  NE       -27.3480   21.5280  163.1820 N.pl3 221  ARG221     -0.0865
     37  CZ       -26.5080   21.9150  162.2260 C.cat 221  ARG221      0.5346
     38  NH1      -25.2290   22.1450  162.5070 N.pl3 221  ARG221      0.1354
     39  NH2      -26.9400   22.0360  160.9770 N.pl3 221  ARG221      0.1354
     40  N        -23.8240   19.0040  161.5410 N.3   226  ASP226     -0.1225
     41  CA       -24.7910   18.8950  160.4550 C.3   226  ASP226      0.1790
     42  C        -25.4730   17.5390  160.4390 C.2   226  ASP226      0.2439
     43  O        -24.9450   16.5580  160.9630 O.2   226  ASP226     -0.2733
     44  CB       -24.1080   19.1100  159.1010 C.3   226  ASP226      0.1423
     45  CG       -23.5870   20.5230  158.9170 C.2   226  ASP226      0.3668
     46  OD1      -23.8880   21.3960  159.7570 O.co2 226  ASP226     -0.2456
     47  OD2      -22.8780   20.7580  157.9150 O.co2 226  ASP226     -0.2456
     48  N        -26.6630   17.4630  159.8280 N.am  227  PRO227     -0.2729
     49  CA       -27.3790   16.1870  159.7670 C.3   227  PRO227      0.1401
     50  C        -26.5700   15.1460  158.9910 C.2   227  PRO227      0.2269
     51  O        -25.7290   15.4970  158.1600 O.2   227  PRO227     -0.2865
     52  CB       -28.6850   16.5550  159.0600 C.3   227  PRO227      0.0296
     53  CG       -28.2820   17.6980  158.1780 C.3   227  PRO227      0.0237
     54  CD       -27.3900   18.5140  159.0900 C.3   227  PRO227      0.0939
     55  N        -33.7970   18.5840  159.5170 N.3   267  SER267     -0.1202
     56  CA       -33.0540   19.8260  159.3410 C.3   267  SER267      0.2020
     57  C        -33.7970   20.8740  158.5310 C.2   267  SER267      0.2618
     58  O        -34.8680   20.6190  157.9820 O.2   267  SER267     -0.2717
     59  CB       -31.7380   19.5380  158.6160 C.3   267  SER267      0.2103
     60  OG       -31.9930   19.2180  157.2480 O.3   267  SER267     -0.2182
     61  N        -33.1860   22.0510  158.4630 N.am  268  ASP268     -0.1973
     62  CA       -33.6840   23.1800  157.6890 C.3   268  ASP268      0.1709
     63  C        -35.1620   23.5580  157.8440 C.2   268  ASP268      0.2293
     64  O        -35.9770   23.3320  156.9430 O.2   268  ASP268     -0.2864
     65  CB       -33.3660   22.9520  156.2040 C.3   268  ASP268      0.1436
     66  CG       -31.8740   22.7440  155.9450 C.2   268  ASP268      0.3671
     67  OD1      -31.3510   21.6450  156.2370 O.co2 268  ASP268     -0.2456
     68  OD2      -31.2180   23.6820  155.4540 O.co2 268  ASP268     -0.2456
     69  N        -33.7930   12.9040  157.2460 N.3   287  TRP287     -0.1241
     70  CA       -32.6290   12.1880  156.7310 C.3   287  TRP287      0.1605
     71  C        -32.3590   10.9870  157.6070 C.2   287  TRP287      0.2264
     72  O        -32.6860   10.9980  158.7970 O.2   287  TRP287     -0.2867
     73  CB       -31.3390   13.0260  156.8000 C.3   287  TRP287      0.0550
     74  CG       -31.4230   14.4350  156.3420 C.ar  287  TRP287      0.0003
     75  CD1      -31.7830   15.5170  157.0870 C.ar  287  TRP287      0.0946
     76  CD2      -31.1480   14.9230  155.0240 C.ar  287  TRP287      0.0152
     77  NE1      -31.7530   16.6560  156.3120 N.ar  287  TRP287     -0.2442
     78  CE2      -31.3680   16.3170  155.0410 C.ar  287  TRP287      0.0810
     79  CE3      -30.7440   14.3150  153.8270 C.ar  287  TRP287      0.0012
     80  CZ2      -31.1940   17.1180  153.9080 C.ar  287  TRP287      0.0191
     81  CZ3      -30.5730   15.1130  152.6950 C.ar  287  TRP287      0.0001
     82  CH2      -30.7990   16.4980  152.7470 C.ar  287  TRP287      0.0015
     83  N        -26.9940   15.3120  153.1160 N.3   293  GLN293     -0.1231
     84  CA       -26.5510   16.0840  151.9670 C.3   293  GLN293      0.1698
     85  C        -25.0400   16.2240  151.8050 C.2   293  GLN293      0.2592
     86  O        -24.5190   16.1110  150.6940 O.2   293  GLN293     -0.2718
     87  CB       -27.1850   17.4630  152.0280 C.3   293  GLN293      0.0381
     88  CG       -27.3790   18.1130  150.6910 C.3   293  GLN293      0.0905
     89  CD       -27.9820   19.4820  150.8490 C.2   293  GLN293      0.2608
     90  OE1      -27.2720   20.4620  151.0840 O.2   293  GLN293     -0.2717
     91  NE2      -29.3010   19.5570  150.7550 N.am  293  GLN293     -0.0878
     92  N        -24.3330   16.4860  152.9010 N.am  294  ASN294     -0.1974
     93  CA       -22.8810   16.6380  152.8290 C.3   294  ASN294      0.1688
     94  C        -22.2030   15.3900  152.2560 C.2   294  ASN294      0.2292
     95  O        -22.5320   14.2640  152.6300 O.2   294  ASN294     -0.2864
     96  CB       -22.3070   16.9520  154.2150 C.3   294  ASN294      0.1181
     97  CG       -22.8160   18.2730  154.7720 C.2   294  ASN294      0.2629
     98  OD1      -23.2810   19.1350  154.0240 O.2   294  ASN294     -0.2716
     99  ND2      -22.7150   18.4420  156.0910 N.am  294  ASN294     -0.0877
    100  N        -34.4080   19.1870  150.1530 N.3   521  ASN521     -0.1240
    101  CA       -34.2150   19.8620  151.4380 C.3   521  ASN521      0.1653
    102  C        -34.7820   21.2800  151.3280 C.2   521  ASN521      0.2266
    103  O        -34.3950   22.0290  150.4390 O.2   521  ASN521     -0.2867
    104  CB       -32.6990   19.8930  151.7200 C.3   521  ASN521      0.1155
    105  CG       -32.3240   20.7250  152.9340 C.2   521  ASN521      0.2627
    106  OD1      -33.1820   21.2450  153.6400 O.2   521  ASN521     -0.2716
    107  ND2      -31.0170   20.8490  153.1790 N.am  521  ASN521     -0.0877
    108  N        -33.4720   22.8780  148.1570 N.3   549  ILE549     -0.1245
    109  CA       -32.2080   22.3950  147.6240 C.3   549  ILE549      0.1561
    110  C        -32.3950   20.9550  147.1770 C.2   549  ILE549      0.2260
    111  O        -32.8560   20.1120  147.9530 O.2   549  ILE549     -0.2867
    112  CB       -31.0960   22.4170  148.6820 C.3   549  ILE549      0.0252
    113  CG1      -30.9640   23.8240  149.2650 C.3   549  ILE549      0.0019
    114  CG2      -29.7660   21.9810  148.0540 C.3   549  ILE549      0.0019
    115  CD1      -30.0580   23.8810  150.4740 C.3   549  ILE549      0.0001
    116  N        -25.6530   20.0290  143.5830 N.3   556  LEU556     -0.1245
    117  CA       -26.7330   20.7430  144.2470 C.3   556  LEU556      0.1561
    118  C        -27.2430   21.8850  143.3750 C.2   556  LEU556      0.2260
    119  O        -26.4810   22.5160  142.6370 O.2   556  LEU556     -0.2867
    120  CB       -26.2440   21.3370  145.5770 C.3   556  LEU556      0.0270
    121  CG       -25.7280   20.4210  146.6880 C.3   556  LEU556      0.0019
    122  CD1      -25.0340   21.2540  147.7600 C.3   556  LEU556      0.0001
    123  CD2      -26.8780   19.6320  147.2840 C.3   556  LEU556      0.0001
    124  N        -27.2100   26.5720  146.5630 N.3   594  SER594     -0.1202
    125  CA       -27.7270   25.7950  147.6860 C.3   594  SER594      0.2020
    126  C        -28.6970   26.5730  148.5810 C.2   594  SER594      0.2618
    127  O        -29.8720   26.7070  148.2560 O.2   594  SER594     -0.2717
    128  CB       -26.5580   25.2340  148.5120 C.3   594  SER594      0.2103
    129  OG       -25.6890   26.2630  148.9480 O.3   594  SER594     -0.2182
    130  N        -28.2050   27.0910  149.6980 N.am  595  GLU595     -0.1979
    131  CA       -29.0510   27.8290  150.6340 C.3   595  GLU595      0.1602
    132  C        -29.5420   29.1380  150.0100 C.2   595  GLU595      0.2287
    133  O        -28.7600   30.0640  149.7720 O.2   595  GLU595     -0.2864
    134  CB       -28.2680   28.0760  151.9240 C.3   595  GLU595      0.0415
    135  CG       -27.6230   26.7890  152.4420 C.3   595  GLU595      0.1163
    136  CD       -26.8110   26.9770  153.7050 C.2   595  GLU595      0.3649
    137  OE1      -26.1600   28.0290  153.8430 O.co2 595  GLU595     -0.2457
    138  OE2      -26.8050   26.0570  154.5540 O.co2 595  GLU595     -0.2457
    139  N        -26.8030   31.1170  147.8940 N.3   611  ARG611     -0.1245
    140  CA       -25.4280   30.8520  148.2650 C.3   611  ARG611      0.1563
    141  C        -24.8980   29.9340  147.1620 C.2   611  ARG611      0.2260
    142  O        -25.6120   29.0380  146.7040 O.2   611  ARG611     -0.2867
    143  CB       -25.4050   30.1290  149.6140 C.3   611  ARG611      0.0307
    144  CG       -24.0680   29.5140  150.0010 C.3   611  ARG611      0.0489
    145  CD       -24.1650   28.9070  151.3970 C.3   611  ARG611      0.2205
    146  NE       -22.9520   28.1860  151.7730 N.pl3 611  ARG611     -0.0865
    147  CZ       -22.6960   27.7420  153.0010 C.cat 611  ARG611      0.5346
    148  NH1      -23.5670   27.9480  153.9820 N.pl3 611  ARG611      0.1354
    149  NH2      -21.5690   27.0860  153.2460 N.pl3 611  ARG611      0.1354
    150  N        -22.1610   27.2470  146.4890 N.3   613  ASP613     -0.1225
    151  CA       -21.1540   26.4010  147.1160 C.3   613  ASP613      0.1805
    152  C        -20.2070   25.7470  146.1220 C.2   613  ASP613      0.2597
    153  O        -20.4920   25.6640  144.9240 O.2   613  ASP613     -0.2718
    154  CB       -21.8130   25.3100  147.9670 C.3   613  ASP613      0.1424
    155  CG       -22.2610   25.8170  149.3280 C.2   613  ASP613      0.3668
    156  OD1      -21.4740   26.5260  149.9860 O.co2 613  ASP613     -0.2456
    157  OD2      -23.3900   25.4920  149.7470 O.co2 613  ASP613     -0.2456
    158  N        -19.0720   25.2860  146.6350 N.am  614  PHE614     -0.1976
    159  CA       -18.0730   24.6150  145.8180 C.3   614  PHE614      0.1639
    160  C        -17.5790   25.4860  144.6600 C.2   614  PHE614      0.2290
    161  O        -17.2930   26.6650  144.8630 O.2   614  PHE614     -0.2864
    162  CB       -18.6540   23.2810  145.3370 C.3   614  PHE614      0.0560
    163  CG       -19.0490   22.3620  146.4690 C.ar  614  PHE614     -0.0200
    164  CD1      -18.0790   21.8160  147.3100 C.ar  614  PHE614     -0.0042
    165  CD2      -20.3900   22.0900  146.7310 C.ar  614  PHE614     -0.0042
    166  CE1      -18.4390   21.0160  148.3980 C.ar  614  PHE614     -0.0003
    167  CE2      -20.7640   21.2920  147.8150 C.ar  614  PHE614     -0.0003
    168  CZ       -19.7860   20.7550  148.6510 C.ar  614  PHE614     -0.0000
    169  N        -17.3400   34.9260  159.4380 N.3   688  ARG688     -0.1245
    170  CA       -18.7140   35.0220  159.9060 C.3   688  ARG688      0.1563
    171  C        -18.7220   35.9360  161.1240 C.2   688  ARG688      0.2260
    172  O        -18.8280   35.4940  162.2750 O.2   688  ARG688     -0.2867
    173  CB       -19.2390   33.6220  160.2220 C.3   688  ARG688      0.0307
    174  CG       -19.2770   32.7580  158.9580 C.3   688  ARG688      0.0489
    175  CD       -19.8640   31.3770  159.1720 C.3   688  ARG688      0.2205
    176  NE       -20.0500   30.6890  157.8950 N.pl3 688  ARG688     -0.0865
    177  CZ       -20.6400   29.5050  157.7620 C.cat 688  ARG688      0.5346
    178  NH1      -21.1040   28.8720  158.8360 N.pl3 688  ARG688      0.1354
    179  NH2      -20.7780   28.9600  156.5540 N.pl3 688  ARG688      0.1354
    180  N        -25.3570   32.3520  160.2950 N.3   716  TYR716     -0.1241
    181  CA       -26.6850   32.2740  159.6850 C.3   716  TYR716      0.1605
    182  C        -27.6590   33.2330  160.3700 C.2   716  TYR716      0.2264
    183  O        -27.5940   33.4260  161.5810 O.2   716  TYR716     -0.2867
    184  CB       -27.2310   30.8430  159.7790 C.3   716  TYR716      0.0534
    185  CG       -26.6320   29.8520  158.8000 C.ar  716  TYR716     -0.0201
    186  CD1      -25.2840   29.9120  158.4410 C.ar  716  TYR716     -0.0009
    187  CD2      -27.4050   28.8130  158.2790 C.ar  716  TYR716     -0.0009
    188  CE1      -24.7230   28.9600  157.5930 C.ar  716  TYR716      0.0417
    189  CE2      -26.8540   27.8590  157.4320 C.ar  716  TYR716      0.0417
    190  CZ       -25.5130   27.9370  157.0940 C.ar  716  TYR716      0.1957
    191  OH       -24.9700   26.9900  156.2530 O.3   716  TYR716     -0.2866
@<TRIPOS>BOND
     1   119   118    2
     2   118   117    1
     3   116   117    1
     4   117   120    1
     5   160   161    2
     6   160   159    1
     7   153   152    2
     8   162   159    1
     9   162   163    1
    10   120   121    1
    11   159   158    1
    12   152   158   am
    13   152   151    1
    14   163   165   ar
    15   163   164   ar
    16   150   151    1
    17   124   125    1
    18   121   123    1
    19   121   122    1
    20   142   141    2
    21   165   167   ar
    22   151   154    1
    23   141   140    1
    24   110   109    1
    25   110   111    2
    26   164   166   ar
    27   109   108    1
    28   109   112    1
    29   125   128    1
    30   125   126    1
    31   167   168   ar
    32   139   140    1
    33   154   155    1
    34   114   112    1
    35   127   126    2
    36   140   143    1
    37   166   168   ar
    38   128   129    1
    39   126   130   am
    40   112   113    1
    41   113   115    1
    42   155   157   ar
    43   155   156   ar
    44   143   144    1
    45   130   131    1
    46   133   132    2
    47   144   145    1
    48   132   131    1
    49   100   101    1
    50   103   102    2
    51   131   134    1
    52    88    89    1
    53    88    87    1
    54    86    85    2
    55    91    89   am
    56    89    90    2
    57   102   101    1
    58   145   146    1
    59   101   104    1
    60   104   105    1
    61   146   147    2
    62    85    84    1
    63    85    92   am
    64   134   135    1
    65    84    87    1
    66    84    83    1
    67    94    95    2
    68    94    93    1
    69   135   136    1
    70    81    82   ar
    71    81    79   ar
    72    82    80   ar
    73    93    92    1
    74    93    96    1
    75   105   107   am
    76   105   106    2
    77   147   149    1
    78   147   148    1
    79   136   137   ar
    80   136   138   ar
    81    79    76   ar
    82    80    78   ar
    83    98    97    2
    84    96    97    1
    85    97    99   am
    86    76    78   ar
    87    76    74   ar
    88    78    77   ar
    89    68    66   ar
    90    66    65    1
    91    66    67   ar
    92    65    62    1
    93   191   190    1
    94    77    75   ar
    95    74    73    1
    96    74    75   ar
    97   179   177    1
    98    70    73    1
    99    70    69    1
   100    70    71    1
   101    64    63    2
   102   190   189   ar
   103   190   188   ar
   104    60    59    1
   105   189   187   ar
   106   188   186   ar
   107    71    72    2
   108    62    63    1
   109    62    61    1
   110   177   176    2
   111   177   178    1
   112   176   175    1
   113    47    45   ar
   114    58    57    2
   115    51    50    2
   116    53    52    1
   117    53    54    1
   118   187   185   ar
   119   186   185   ar
   120    61    57   am
   121    57    56    1
   122    59    56    1
   123   185   184    1
   124    45    44    1
   125    45    46   ar
   126   174   175    1
   127   174   173    1
   128    50    49    1
   129    52    49    1
   130    54    48    1
   131    44    41    1
   132    18    16    1
   133    56    55    1
   134   169   170    1
   135   181   184    1
   136   181   180    1
   137   181   182    1
   138    49    48    1
   139    48    42   am
   140    28    26   ar
   141   170   173    1
   142   170   171    1
   143    19    17    1
   144   182   183    2
   145    42    41    1
   146    42    43    2
   147    41    40    1
   148    11     9    1
   149    16    17    1
   150    16    13    1
   151    39    37    1
   152    26    27   ar
   153    26    25    1
   154    10     9    1
   155   171   172    2
   156     9     8    2
   157    13    14    1
   158    13    12    1
   159    15    14    2
   160    25    24    1
   161    37    38    1
   162    37    36    2
   163    12     3   am
   164     8     7    1
   165    36    35    1
   166    24    21    1
   167     3     4    2
   168     3     2    1
   169     7     6    1
   170     5     6    1
   171     5     2    1
   172    20    21    1
   173    21    22    1
   174    35    34    1
   175     2     1    1
   176    34    33    1
   177    22    23    2
   178    33    30    1
   179    30    29    1
   180    30    31    1
   181    31    32    2
