@<TRIPOS>MOLECULE
tmp/1w0pA01.pdb
 99 91 0 0 0
SMALL
GASTEIGER

@<TRIPOS>ATOM
      1  N        -34.2380   67.1770  193.0460 N.3    50  ARG50      -0.1245
      2  CA       -34.1570   66.1930  191.9740 C.3    50  ARG50       0.1563
      3  C        -35.3700   65.2740  192.0780 C.2    50  ARG50       0.2260
      4  O        -35.8490   64.9910  193.1730 O.2    50  ARG50      -0.2867
      5  CB       -32.8740   65.3700  192.1220 C.3    50  ARG50       0.0307
      6  CG       -32.6370   64.3400  191.0280 C.3    50  ARG50       0.0489
      7  CD       -31.2950   63.6460  191.2230 C.3    50  ARG50       0.2205
      8  NE       -31.3060   62.7320  192.3620 N.pl3  50  ARG50      -0.0865
      9  CZ       -30.2520   62.4820  193.1340 C.cat  50  ARG50       0.5346
     10  NH1      -29.0950   63.0810  192.8980 N.pl3  50  ARG50       0.1354
     11  NH2      -30.3540   61.6270  194.1420 N.pl3  50  ARG50       0.1354
     12  N        -36.3520   61.7580  190.0450 N.3    52  GLN52      -0.1245
     13  CA       -36.0870   60.8010  188.9850 C.3    52  GLN52       0.1566
     14  C        -36.3180   59.3670  189.4280 C.2    52  GLN52       0.2260
     15  O        -36.4860   59.0850  190.6180 O.2    52  GLN52      -0.2867
     16  CB       -34.6500   60.9630  188.4700 C.3    52  GLN52       0.0367
     17  CG       -33.5750   60.4740  189.4300 C.3    52  GLN52       0.0905
     18  CD       -32.1620   60.6910  188.9040 C.2    52  GLN52       0.2608
     19  OE1      -31.1980   60.1450  189.4430 O.2    52  GLN52      -0.2717
     20  NE2      -32.0320   61.4980  187.8550 N.am   52  GLN52      -0.0878
     21  N        -33.2460   70.2500  182.3880 N.3    83  MET83      -0.1245
     22  CA       -32.5850   69.0720  182.9180 C.3    83  MET83       0.1570
     23  C        -33.5130   67.8640  182.9680 C.2    83  MET83       0.2261
     24  O        -33.5580   67.1400  183.9600 O.2    83  MET83      -0.2867
     25  CB       -31.9850   69.3430  184.3030 C.3    83  MET83       0.0387
     26  CG       -30.6480   70.0910  184.2650 C.3    83  MET83       0.0595
     27  SD       -29.3430   69.2240  183.3260 S.3    83  MET83      -0.1393
     28  CE       -28.8700   67.9390  184.4850 C.3    83  MET83       0.0692
     29  N        -33.6730   64.6090  181.9620 N.3    85  THR85      -0.1218
     30  CA       -32.6800   63.6280  181.5570 C.3    85  THR85       0.1862
     31  C        -33.1400   62.1760  181.5520 C.2    85  THR85       0.2287
     32  O        -33.2980   61.5680  182.6090 O.2    85  THR85      -0.2866
     33  CB       -31.4630   63.7370  182.4930 C.3    85  THR85       0.1770
     34  OG1      -31.8960   63.5560  183.8520 O.3    85  THR85      -0.2211
     35  CG2      -30.8200   65.1160  182.3660 C.3    85  THR85       0.0375
     36  N        -31.8350   58.7440  180.2170 N.3    87  TYR87      -0.1241
     37  CA       -30.6470   58.1390  179.6340 C.3    87  TYR87       0.1605
     38  C        -30.2210   56.8330  180.2900 C.2    87  TYR87       0.2264
     39  O        -30.8410   56.3580  181.2390 O.2    87  TYR87      -0.2867
     40  CB       -29.4830   59.1270  179.7310 C.3    87  TYR87       0.0534
     41  CG       -29.0990   59.4640  181.1550 C.ar   87  TYR87      -0.0201
     42  CD1      -29.9090   60.2810  181.9470 C.ar   87  TYR87      -0.0009
     43  CD2      -27.9350   58.9440  181.7220 C.ar   87  TYR87      -0.0009
     44  CE1      -29.5670   60.5720  183.2680 C.ar   87  TYR87       0.0417
     45  CE2      -27.5850   59.2270  183.0400 C.ar   87  TYR87       0.0417
     46  CZ       -28.4050   60.0420  183.8070 C.ar   87  TYR87       0.1957
     47  OH       -28.0570   60.3300  185.1080 O.3    87  TYR87      -0.2866
     48  N        -21.7390   57.0990  179.0980 N.3    94  ARG94      -0.1245
     49  CA       -23.1630   57.3260  178.8980 C.3    94  ARG94       0.1563
     50  C        -23.4130   58.2410  177.7080 C.2    94  ARG94       0.2260
     51  O        -22.5210   58.9600  177.2640 O.2    94  ARG94      -0.2867
     52  CB       -23.7710   57.9710  180.1490 C.3    94  ARG94       0.0307
     53  CG       -23.2810   59.3930  180.4150 C.3    94  ARG94       0.0489
     54  CD       -23.9810   60.0220  181.6100 C.3    94  ARG94       0.2205
     55  NE       -23.4800   61.3650  181.8940 N.pl3  94  ARG94      -0.0865
     56  CZ       -23.9190   62.1310  182.8880 C.cat  94  ARG94       0.5346
     57  NH1      -24.8710   61.6910  183.6980 N.pl3  94  ARG94       0.1354
     58  NH2      -23.4000   63.3360  183.0780 N.pl3  94  ARG94       0.1354
     59  N        -25.9150   61.1400  176.9810 N.3    96  LEU96      -0.1245
     60  CA       -26.8780   61.9640  177.6940 C.3    96  LEU96       0.1561
     61  C        -27.5410   63.1350  176.9820 C.2    96  LEU96       0.2260
     62  O        -26.9220   64.1810  176.7780 O.2    96  LEU96      -0.2867
     63  CB       -26.2270   62.4830  178.9790 C.3    96  LEU96       0.0270
     64  CG       -27.0020   63.5230  179.7900 C.3    96  LEU96       0.0019
     65  CD1      -28.3260   62.9340  180.2520 C.3    96  LEU96       0.0001
     66  CD2      -26.1650   63.9650  180.9780 C.3    96  LEU96       0.0001
     67  N        -21.7160   56.8660  186.6070 N.3   164  GLN164     -0.1245
     68  CA       -23.0770   56.4460  186.9120 C.3   164  GLN164      0.1566
     69  C        -23.3170   55.0950  186.2550 C.2   164  GLN164      0.2260
     70  O        -22.7190   54.7780  185.2280 O.2   164  GLN164     -0.2867
     71  CB       -24.0950   57.4630  186.3940 C.3   164  GLN164      0.0367
     72  CG       -23.9110   58.8640  186.9550 C.3   164  GLN164      0.0905
     73  CD       -25.0550   59.7890  186.5940 C.2   164  GLN164      0.2608
     74  OE1      -25.5260   59.7960  185.4570 O.2   164  GLN164     -0.2717
     75  NE2      -25.5020   60.5860  187.5590 N.am  164  GLN164     -0.0878
     76  N        -33.1030   65.1100  186.3860 N.3   172  GLY172     -0.1210
     77  CA       -31.8590   64.7850  187.0630 C.3   172  GLY172      0.1956
     78  C        -30.9920   65.9360  187.5320 C.2   172  GLY172      0.2613
     79  O        -29.8090   66.0090  187.1790 O.2   172  GLY172     -0.2717
     80  N        -31.5610   66.8270  188.3360 N.am  173  SER173     -0.1938
     81  CA       -30.8220   67.9730  188.8540 C.3   173  SER173      0.2055
     82  C        -31.4890   68.5580  190.0940 C.2   173  SER173      0.2644
     83  O        -32.6930   68.7990  190.1020 O.2   173  SER173     -0.2714
     84  CB       -30.7080   69.0610  187.7820 C.3   173  SER173      0.2130
     85  OG       -30.0890   70.2250  188.3030 O.3   173  SER173     -0.2179
     86  N        -30.7040   68.7940  191.1390 N.am  174  SER174     -0.1935
     87  CA       -31.2430   69.3620  192.3690 C.3   174  SER174      0.2055
     88  C        -31.4190   70.8740  192.2610 C.2   174  SER174      0.2643
     89  O        -32.3360   71.4400  192.8530 O.2   174  SER174     -0.2714
     90  CB       -30.3230   69.0500  193.5510 C.3   174  SER174      0.2130
     91  OG       -30.2360   67.6570  193.7870 O.3   174  SER174     -0.2179
     92  N        -30.5460   71.5230  191.4950 N.am  175  ASN175     -0.1971
     93  CA       -30.5990   72.9740  191.3390 C.3   175  ASN175      0.1688
     94  C        -31.4950   73.4760  190.2070 C.2   175  ASN175      0.2292
     95  O        -32.1070   74.5360  190.3250 O.2   175  ASN175     -0.2864
     96  CB       -29.1810   73.5310  191.1590 C.3   175  ASN175      0.1181
     97  CG       -28.4920   72.9900  189.9200 C.2   175  ASN175      0.2629
     98  OD1      -28.8910   73.2860  188.7930 O.2   175  ASN175     -0.2716
     99  ND2      -27.4530   72.1870  190.1240 N.am  175  ASN175     -0.0877
@<TRIPOS>BOND
     1    62    61    2
     2    59    60    1
     3    61    60    1
     4    51    50    2
     5    60    63    1
     6    50    49    1
     7    49    48    1
     8    49    52    1
     9    63    64    1
    10    37    40    1
    11    37    36    1
    12    37    38    1
    13    40    41    1
    14    64    65    1
    15    64    66    1
    16    52    53    1
    17    38    39    2
    18    53    54    1
    19    41    43   ar
    20    41    42   ar
    21    31    30    1
    22    31    32    2
    23    30    29    1
    24    30    33    1
    25    54    55    1
    26    43    45   ar
    27    55    56    2
    28    42    44   ar
    29    35    33    1
    30    21    22    1
    31    33    34    1
    32    56    58    1
    33    56    57    1
    34    22    23    1
    35    22    25    1
    36    23    24    2
    37    45    46   ar
    38    44    46   ar
    39    27    26    1
    40    27    28    1
    41    46    47    1
    42    26    25    1
    43    70    69    2
    44    74    73    2
    45    69    68    1
    46    76    77    1
    47    71    68    1
    48    71    72    1
    49    73    72    1
    50    73    75   am
    51    67    68    1
    52    77    78    1
    53    79    78    2
    54    78    80   am
    55    84    85    1
    56    84    81    1
    57    20    18   am
    58    80    81    1
    59    16    13    1
    60    16    17    1
    61    98    97    2
    62    81    82    1
    63    18    17    1
    64    18    19    2
    65    13    14    1
    66    13    12    1
    67    14    15    2
    68    97    99   am
    69    97    96    1
    70    82    83    2
    71    82    86   am
    72    94    95    2
    73    94    93    1
    74     6     7    1
    75     6     5    1
    76    86    87    1
    77    96    93    1
    78     7     8    1
    79    93    92    1
    80    92    88   am
    81     2     3    1
    82     2     5    1
    83     2     1    1
    84     3     4    2
    85    88    87    1
    86    88    89    2
    87     8     9    2
    88    87    90    1
    89    10     9    1
    90     9    11    1
    91    90    91    1
