@<TRIPOS>MOLECULE
tmp/1w0xA00.pdb
 163 154 0 0 0
SMALL
GASTEIGER

@<TRIPOS>ATOM
      1  N        100.0530  110.3260   82.2900 N.3     8  GLU8       -0.1245
      2  CA        99.0960  109.3690   81.7360 C.3     8  GLU8        0.1567
      3  C         99.1450  108.0740   82.5480 C.2     8  GLU8        0.2260
      4  O        100.1040  107.8300   83.2730 O.2     8  GLU8       -0.2867
      5  CB        99.5230  109.0370   80.2830 C.3     8  GLU8        0.0388
      6  CG        98.4380  109.0870   79.1900 C.3     8  GLU8        0.1160
      7  CD        98.9820  108.7800   77.7750 C.2     8  GLU8        0.3649
      8  OE1       99.9360  109.4540   77.3290 O.co2   8  GLU8       -0.2457
      9  OE2       98.4510  107.8670   77.0990 O.co2   8  GLU8       -0.2457
     10  N         99.3840  104.5610   81.6250 N.3    10  ILE10      -0.1231
     11  CA        99.5720  103.7280   80.4450 C.3    10  ILE10       0.1692
     12  C         99.0210  102.3240   80.6410 C.2    10  ILE10       0.2592
     13  O         98.9360  101.5510   79.6960 O.2    10  ILE10      -0.2718
     14  CB       101.0410  103.6970   79.9520 C.3    10  ILE10       0.0266
     15  CG1      101.9830  103.1870   81.0350 C.3    10  ILE10       0.0019
     16  CG2      101.4580  105.0810   79.4770 C.3    10  ILE10       0.0020
     17  CD1      103.4380  103.2860   80.6420 C.3    10  ILE10       0.0001
     18  N         98.6200  101.9970   81.8630 N.am   11  GLY11      -0.1957
     19  CA        98.0670  100.6840   82.1130 C.3    11  GLY11       0.1869
     20  C         97.8740  100.3910   83.5790 C.2    11  GLY11       0.2309
     21  O         97.7930  101.2990   84.4000 O.2    11  GLY11      -0.2863
     22  N        100.4550  101.6800   86.3040 N.3    18  VAL18      -0.1245
     23  CA       101.6630  102.1890   85.7060 C.3    18  VAL18       0.1561
     24  C        101.2980  103.5080   85.0650 C.2    18  VAL18       0.2260
     25  O        100.2390  103.6420   84.4440 O.2    18  VAL18      -0.2867
     26  CB       102.1930  101.2170   84.6300 C.3    18  VAL18       0.0252
     27  CG1      103.5310  101.6980   84.0940 C.3    18  VAL18       0.0019
     28  CG2      102.3300   99.8230   85.2110 C.3    18  VAL18       0.0019
     29  N        102.8290  107.0280   82.7900 N.3    20  LYS20      -0.1245
     30  CA       103.8710  107.6210   81.9800 C.3    20  LYS20       0.1561
     31  C        104.0300  108.9360   82.7740 C.2    20  LYS20       0.2260
     32  O        103.0270  109.6230   83.0360 O.2    20  LYS20      -0.2867
     33  CB       103.3710  107.8650   80.5590 C.3    20  LYS20       0.0271
     34  CG       104.4280  108.4810   79.6800 C.3    20  LYS20       0.0035
     35  CD       103.8960  108.9500   78.3510 C.3    20  LYS20       0.0206
     36  CE       105.0170  109.6170   77.5450 C.3    20  LYS20       0.1093
     37  NZ       104.6530  109.9250   76.1190 N.3    20  LYS20      -0.1314
     38  N        108.5040  105.1910   83.3050 N.3    31  ALA31      -0.1245
     39  CA       107.2750  104.4430   83.5840 C.3    31  ALA31       0.1562
     40  C        107.2420  104.2930   85.0820 C.2    31  ALA31       0.2260
     41  O        108.1370  103.7000   85.6850 O.2    31  ALA31      -0.2867
     42  CB       107.2840  103.0950   82.9220 C.3    31  ALA31       0.0290
     43  N        105.5390  102.9760   88.4140 N.3    33  LYS33      -0.1245
     44  CA       104.6400  101.9300   88.8390 C.3    33  LYS33       0.1561
     45  C        104.3180  102.0080   90.3210 C.2    33  LYS33       0.2260
     46  O        105.2110  101.8920   91.1630 O.2    33  LYS33      -0.2867
     47  CB       105.2080  100.5540   88.4730 C.3    33  LYS33       0.0271
     48  CG       104.1710   99.4710   88.5420 C.3    33  LYS33       0.0035
     49  CD       104.7420   98.1190   88.3280 C.3    33  LYS33       0.0206
     50  CE       103.6730   97.1000   88.6530 C.3    33  LYS33       0.1093
     51  NZ       104.0250   95.7910   88.0720 N.3    33  LYS33      -0.1314
     52  N        113.4540   95.3490   80.5100 N.3    57  VAL57      -0.1245
     53  CA       113.0790   96.7340   80.8130 C.3    57  VAL57       0.1561
     54  C        113.8110   97.1460   82.0900 C.2    57  VAL57       0.2260
     55  O        113.5910   96.5720   83.1540 O.2    57  VAL57      -0.2867
     56  CB       111.5590   96.8660   81.0300 C.3    57  VAL57       0.0252
     57  CG1      111.2130   98.2330   81.5610 C.3    57  VAL57       0.0019
     58  CG2      110.8350   96.6310   79.7210 C.3    57  VAL57       0.0019
     59  N        110.7260  102.6900   85.9820 N.3    73  PHE73      -0.1227
     60  CA       111.3390  101.9660   84.8780 C.3    73  PHE73       0.1736
     61  C        111.5710  102.8480   83.6750 C.2    73  PHE73       0.2595
     62  O        110.8960  103.8500   83.5070 O.2    73  PHE73      -0.2718
     63  CB       110.4060  100.8560   84.4040 C.3    73  PHE73       0.0547
     64  CG       110.2030   99.7540   85.3910 C.ar   73  PHE73      -0.0202
     65  CD1      109.1160   99.7730   86.2530 C.ar   73  PHE73      -0.0042
     66  CD2      111.0770   98.6720   85.4320 C.ar   73  PHE73      -0.0042
     67  CE1      108.9020   98.7320   87.1380 C.ar   73  PHE73      -0.0003
     68  CE2      110.8730   97.6240   86.3090 C.ar   73  PHE73      -0.0003
     69  CZ       109.7850   97.6470   87.1660 C.ar   73  PHE73      -0.0000
     70  N        112.4780  102.4330   82.7940 N.am   74  GLU74      -0.1965
     71  CA       112.7320  103.1570   81.5390 C.3    74  GLU74       0.1733
     72  C        111.4460  103.0370   80.7390 C.2    74  GLU74       0.2616
     73  O        110.7390  102.0270   80.8290 O.2    74  GLU74      -0.2715
     74  CB       113.8470  102.4980   80.7270 C.3    74  GLU74       0.0429
     75  CG       113.5670  101.0330   80.3720 C.3    74  GLU74       0.1163
     76  CD       114.4060  100.5300   79.2110 C.2    74  GLU74       0.3649
     77  OE1      114.3420  101.1390   78.1150 O.co2  74  GLU74      -0.2457
     78  OE2      115.1230   99.5210   79.3880 O.co2  74  GLU74      -0.2457
     79  N        111.1630  104.0480   79.9330 N.am   75  PHE75      -0.1960
     80  CA       109.9570  104.0690   79.1390 C.3    75  PHE75       0.1771
     81  C        110.2050  103.5250   77.7290 C.2    75  PHE75       0.2619
     82  O        111.2010  103.8630   77.0970 O.2    75  PHE75      -0.2715
     83  CB       109.4250  105.5060   79.0860 C.3    75  PHE75       0.0574
     84  CG       108.1250  105.6440   78.3520 C.ar   75  PHE75      -0.0200
     85  CD1      106.9470  105.1770   78.9140 C.ar   75  PHE75      -0.0042
     86  CD2      108.0930  106.1890   77.0760 C.ar   75  PHE75      -0.0042
     87  CE1      105.7590  105.2370   78.2280 C.ar   75  PHE75      -0.0003
     88  CE2      106.9030  106.2570   76.3690 C.ar   75  PHE75      -0.0003
     89  CZ       105.7290  105.7760   76.9520 C.ar   75  PHE75      -0.0000
     90  N        109.3020  102.6580   77.2660 N.am   76  LEU76      -0.1963
     91  CA       109.3560  102.0670   75.9240 C.3    76  LEU76       0.1728
     92  C        108.0940  102.5670   75.2270 C.2    76  LEU76       0.2616
     93  O        107.0710  102.7340   75.8690 O.2    76  LEU76      -0.2715
     94  CB       109.4430  100.5310   75.9840 C.3    76  LEU76       0.0311
     95  CG       110.9170  100.0870   76.1190 C.3    76  LEU76       0.0022
     96  CD1      111.2440   99.6830   77.5240 C.3    76  LEU76       0.0001
     97  CD2      111.2300   98.9520   75.1770 C.3    76  LEU76       0.0001
     98  N        108.1550  102.8150   73.9200 N.am   77  HIS77      -0.1959
     99  CA       106.9960  103.3800   73.2090 C.3    77  HIS77       0.1787
    100  C        105.7620  102.5830   72.8510 C.2    77  HIS77       0.2620
    101  O        104.7180  103.1820   72.5800 O.2    77  HIS77      -0.2715
    102  CB       107.4420  104.2070   71.9990 C.3    77  HIS77       0.0785
    103  CG       107.3430  105.6890   72.2260 C.ar   77  HIS77       0.0821
    104  ND1      108.4000  106.4440   72.6970 N.ar   77  HIS77      -0.2267
    105  CD2      106.3130  106.5610   72.0350 C.ar   77  HIS77       0.1154
    106  CE1      108.0270  107.7100   72.7820 C.ar   77  HIS77       0.1986
    107  NE2      106.7710  107.8090   72.3870 N.ar   77  HIS77      -0.2212
    108  N        105.8560  101.2570   72.8540 N.am   78  GLN78      -0.1963
    109  CA       104.6960  100.4230   72.5360 C.3    78  GLN78       0.1733
    110  C        104.8360   99.0520   73.1910 C.2    78  GLN78       0.2616
    111  O        105.9100   98.6950   73.6780 O.2    78  GLN78      -0.2715
    112  CB       104.5480  100.2880   71.0010 C.3    78  GLN78       0.0408
    113  CG       103.2150   99.7340   70.4850 C.3    78  GLN78       0.0908
    114  CD       102.9210  100.1640   69.0410 C.2    78  GLN78       0.2608
    115  OE1      103.0770   99.3890   68.0960 O.2    78  GLN78      -0.2717
    116  NE2      102.5030  101.4140   68.8730 N.am   78  GLN78      -0.0878
    117  N        103.7100   98.3580   73.3130 N.am   79  ASP79      -0.1971
    118  CA       103.6750   97.0030   73.8470 C.3    79  ASP79       0.1709
    119  C        103.2820   96.0920   72.6620 C.2    79  ASP79       0.2293
    120  O        102.6610   96.5740   71.6910 O.2    79  ASP79      -0.2864
    121  CB       102.7450   96.8790   75.0800 C.3    79  ASP79       0.1436
    122  CG       101.2590   96.9350   74.7470 C.2    79  ASP79       0.3671
    123  OD1      100.7660   96.0440   74.0460 O.co2  79  ASP79      -0.2456
    124  OD2      100.5470   97.8260   75.2520 O.co2  79  ASP79      -0.2456
    125  N         99.3690   95.7000   71.4390 N.3    82  LYS82      -0.1245
    126  CA        98.8750   96.7780   70.5730 C.3    82  LYS82       0.1561
    127  C         99.4520   96.6670   69.1800 C.2    82  LYS82       0.2260
    128  O         98.7640   96.8950   68.2000 O.2    82  LYS82      -0.2867
    129  CB        99.2770   98.1200   71.1510 C.3    82  LYS82       0.0271
    130  CG        98.9130   99.3060   70.2790 C.3    82  LYS82       0.0035
    131  CD        99.6190  100.5930   70.6980 C.3    82  LYS82       0.0206
    132  CE        99.8060  100.7170   72.2300 C.3    82  LYS82       0.1093
    133  NZ       101.2340  100.3740   72.7530 N.3    82  LYS82      -0.1314
    134  N        101.1780   91.8410   76.4480 N.3   124  GLN124     -0.1245
    135  CA       101.1570   93.1230   77.1300 C.3   124  GLN124      0.1566
    136  C        102.3680   93.4950   77.9450 C.2   124  GLN124      0.2260
    137  O        102.5340   94.6700   78.2690 O.2   124  GLN124     -0.2867
    138  CB        99.9490   93.2340   78.0150 C.3   124  GLN124      0.0367
    139  CG        98.8570   94.0540   77.4450 C.3   124  GLN124      0.0905
    140  CD        97.7660   94.2280   78.4600 C.2   124  GLN124      0.2608
    141  OE1       97.1220   93.2490   78.8570 O.2   124  GLN124     -0.2717
    142  NE2       97.5810   95.4620   78.9430 N.am  124  GLN124     -0.0878
    143  N        107.5310   94.8300   75.6080 N.3   127  LEU127     -0.1245
    144  CA       107.5550   96.2030   75.0780 C.3   127  LEU127      0.1561
    145  C        108.5540   96.3490   73.9500 C.2   127  LEU127      0.2260
    146  O        109.6230   95.7660   73.9800 O.2   127  LEU127     -0.2867
    147  CB       107.8460   97.2070   76.2090 C.3   127  LEU127      0.0270
    148  CG       106.9340   97.1190   77.4350 C.3   127  LEU127      0.0019
    149  CD1      107.5820   97.8060   78.5850 C.3   127  LEU127      0.0001
    150  CD2      105.5330   97.6860   77.1630 C.3   127  LEU127      0.0001
    151  N        109.0640   93.1330   80.4880 N.3   137  ALA137     -0.1231
    152  CA       108.7220   94.0490   81.5680 C.3   137  ALA137      0.1694
    153  C        108.1510   93.2300   82.7140 C.2   137  ALA137      0.2592
    154  O        107.5370   92.1880   82.4650 O.2   137  ALA137     -0.2718
    155  CB       107.6750   95.0590   81.0840 C.3   137  ALA137      0.0304
    156  N        108.3410   93.6990   83.9520 N.am  138  ASP138     -0.1974
    157  CA       107.8470   93.0340   85.1810 C.3   138  ASP138      0.1709
    158  C        108.5580   91.7270   85.5760 C.2   138  ASP138      0.2293
    159  O        108.0050   90.8950   86.3070 O.2   138  ASP138     -0.2864
    160  CB       106.3240   92.7900   85.1190 C.3   138  ASP138      0.1436
    161  CG       105.5110   94.0890   85.2250 C.2   138  ASP138      0.3671
    162  OD1      106.0890   95.2140   85.1400 O.co2 138  ASP138     -0.2456
    163  OD2      104.2710   93.9700   85.4040 O.co2 138  ASP138     -0.2456
@<TRIPOS>BOND
     1   115   114    2
     2   128   127    2
     3   116   114   am
     4   114   113    1
     5   127   126    1
     6   130   131    1
     7   130   129    1
     8   113   112    1
     9   126   129    1
    10   126   125    1
    11   131   132    1
    12   112   109    1
    13   120   119    2
    14   102   103    1
    15   102    99    1
    16   105   103   ar
    17   105   107   ar
    18   103   104   ar
    19   132   133    1
    20   107   106   ar
    21   109   108    1
    22   109   110    1
    23   101   100    2
    24   119   118    1
    25   104   106   ar
    26   100   108   am
    27   100    99    1
    28   110   117   am
    29   110   111    2
    30    99    98    1
    31   117   118    1
    32   118   121    1
    33    98    92   am
    34   145   146    2
    35   145   144    1
    36   123   122   ar
    37   122   121    1
    38   122   124   ar
    39   144   143    1
    40   144   147    1
    41    97    95    1
    42    92    93    2
    43    92    91    1
    44    91    94    1
    45    91    90    1
    46    94    95    1
    47    95    96    1
    48    37    36    1
    49   147   148    1
    50    88    89   ar
    51    88    86   ar
    52   134   135    1
    53    89    87   ar
    54    86    84   ar
    55    82    81    2
    56     9     7   ar
    57   135   136    1
    58   135   138    1
    59   150   148    1
    60    90    81   am
    61     8     7   ar
    62   148   149    1
    63   139   138    1
    64   139   140    1
    65    36    35    1
    66    81    80    1
    67     7     6    1
    68   136   137    2
    69    77    76   ar
    70    87    85   ar
    71    35    34    1
    72    84    85   ar
    73    84    83    1
    74   140   141    2
    75   140   142   am
    76    83    80    1
    77    80    79    1
    78     6     5    1
    79    76    78   ar
    80    76    75    1
    81    16    14    1
    82    34    33    1
    83    13    12    2
    84    58    56    1
    85    79    72   am
    86    14    11    1
    87    14    15    1
    88     5     2    1
    89    75    74    1
    90    11    12    1
    91    11    10    1
    92   151   152    1
    93    52    53    1
    94    33    30    1
    95    12    18   am
    96    17    15    1
    97    74    71    1
    98    72    73    2
    99    72    71    1
   100    53    56    1
   101    53    54    1
   102    56    57    1
   103   155   152    1
   104    71    70    1
   105   152   153    1
   106     2     1    1
   107     2     3    1
   108    18    19    1
   109    30    31    1
   110    30    29    1
   111    54    55    2
   112    19    20    1
   113   154   153    2
   114     3     4    2
   115   153   156   am
   116    31    32    2
   117    70    61   am
   118    42    39    1
   119    38    39    1
   120    62    61    2
   121    20    21    2
   122    39    40    1
   123    61    60    1
   124   156   157    1
   125    27    26    1
   126    63    60    1
   127    63    64    1
   128    25    24    2
   129    26    28    1
   130    26    23    1
   131    60    59    1
   132    24    23    1
   133    40    41    2
   134   160   157    1
   135   160   161    1
   136   162   161   ar
   137   157   158    1
   138   161   163   ar
   139    64    66   ar
   140    64    65   ar
   141    66    68   ar
   142   158   159    2
   143    23    22    1
   144    65    67   ar
   145    68    69   ar
   146    67    69   ar
   147    51    50    1
   148    49    48    1
   149    49    50    1
   150    43    44    1
   151    47    48    1
   152    47    44    1
   153    44    45    1
   154    45    46    2
