@<TRIPOS>MOLECULE
tmp/1w0yA00.pdb
 157 155 0 0 0
SMALL
GASTEIGER

@<TRIPOS>ATOM
      1  N         31.6090   14.4030    4.3370 N.3    41  HIS41      -0.1241
      2  CA        32.1290   13.1270    3.8780 C.3    41  HIS41       0.1621
      3  C         31.0780   12.2930    3.1600 C.2    41  HIS41       0.2264
      4  O         31.3830   11.3060    2.4870 O.2    41  HIS41      -0.2867
      5  CB        32.7620   12.3500    5.0390 C.3    41  HIS41       0.0745
      6  CG        31.7970   11.5450    5.8490 C.ar   41  HIS41       0.0817
      7  ND1       31.3420   11.9530    7.0890 N.ar   41  HIS41      -0.2268
      8  CD2       31.2570   10.3230    5.6340 C.ar   41  HIS41       0.1154
      9  CE1       30.5700   11.0110    7.6030 C.ar   41  HIS41       0.1986
     10  NE2       30.5020   10.0100    6.7400 N.ar   41  HIS41      -0.2212
     11  N         38.0960   11.7540    2.6530 N.3    85  GLY85      -0.1210
     12  CA        38.8540   10.6900    3.2760 C.3    85  GLY85       0.1956
     13  C         39.4950   11.0690    4.5920 C.2    85  GLY85       0.2613
     14  O         40.2950   10.3020    5.1390 O.2    85  GLY85      -0.2717
     15  N         39.1730   12.2590    5.0870 N.am   86  THR86      -0.1938
     16  CA        39.7000   12.7040    6.3710 C.3    86  THR86       0.2028
     17  C         38.5250   13.1960    7.2040 C.2    86  THR86       0.2642
     18  O         37.4220   13.3610    6.6880 O.2    86  THR86      -0.2714
     19  CB        40.8000   13.8030    6.2220 C.3    86  THR86       0.1808
     20  OG1       40.2770   14.9460    5.5300 O.3    86  THR86      -0.2208
     21  CG2       41.9760   13.2460    5.4390 C.3    86  THR86       0.0379
     22  N         38.7700   13.4620    8.4800 N.am   87  THR87      -0.1950
     23  CA        37.7030   13.8240    9.3930 C.3    87  THR87       0.1897
     24  C         37.3370   15.2900    9.7120 C.2    87  THR87       0.2313
     25  O         36.1770   15.5820   10.0330 O.2    87  THR87      -0.2863
     26  CB        37.9630   13.1020   10.7480 C.3    87  THR87       0.1794
     27  OG1       39.2590   13.4680   11.2210 O.3    87  THR87      -0.2208
     28  CG2       37.9240   11.5990   10.5860 C.3    87  THR87       0.0378
     29  N         33.9610   18.2660    8.9270 N.3    90  ASP90      -0.1239
     30  CA        32.9670   17.4020    8.3060 C.3    90  ASP90       0.1674
     31  C         31.5870   18.0710    8.2650 C.2    90  ASP90       0.2266
     32  O         30.7220   17.7200    9.0410 O.2    90  ASP90      -0.2867
     33  CB        32.8800   16.0840    9.0650 C.3    90  ASP90       0.1410
     34  CG        32.3540   14.9580    8.2000 C.2    90  ASP90       0.3668
     35  OD1       32.0420   15.2230    7.0210 O.co2  90  ASP90      -0.2456
     36  OD2       32.2560   13.8120    8.6780 O.co2  90  ASP90      -0.2456
     37  N         44.3390    6.6980   14.2290 N.3   165  SER165     -0.1203
     38  CA        43.1070    7.3320   14.7070 C.3   165  SER165      0.2005
     39  C         43.1510    8.8540   14.5190 C.2   165  SER165      0.2460
     40  O         44.0990    9.5250   14.9290 O.2   165  SER165     -0.2732
     41  CB        42.8800    7.0090   16.1900 C.3   165  SER165      0.2103
     42  OG        43.8050    7.6950   17.0270 O.3   165  SER165     -0.2182
     43  N         42.1260    9.4180   13.8850 N.am  166  PRO166     -0.2728
     44  CA        42.1320   10.8650   13.6840 C.3   166  PRO166      0.1401
     45  C         42.1830   11.5830   15.0270 C.2   166  PRO166      0.2269
     46  O         41.8340   11.0150   16.0640 O.2   166  PRO166     -0.2865
     47  CB        40.8280   11.1110   12.9420 C.3   166  PRO166      0.0296
     48  CG        40.6430    9.8280   12.1650 C.3   166  PRO166      0.0237
     49  CD        41.0180    8.7720   13.1680 C.3   166  PRO166      0.0939
     50  N         25.4690    4.3030   20.3590 N.3   183  ASP183     -0.1225
     51  CA        26.2310    5.1950   19.4960 C.3   183  ASP183      0.1805
     52  C         25.4080    5.4040   18.2220 C.2   183  ASP183      0.2598
     53  O         24.3960    4.7260   17.9980 O.2   183  ASP183     -0.2718
     54  CB        27.5650    4.5180   19.1430 C.3   183  ASP183      0.1424
     55  CG        28.6230    5.4920   18.6120 C.2   183  ASP183      0.3668
     56  OD1       29.7010    5.0200   18.2210 O.co2 183  ASP183     -0.2456
     57  OD2       28.3940    6.7210   18.5820 O.co2 183  ASP183     -0.2456
     58  N         25.7930    6.3780   17.4070 N.am  184  SER184     -0.1938
     59  CA        25.1140    6.5140   16.1430 C.3   184  SER184      0.2055
     60  C         26.0700    5.6420   15.3310 C.2   184  SER184      0.2643
     61  O         27.0050    5.0610   15.9030 O.2   184  SER184     -0.2714
     62  CB        25.0870    7.9610   15.6560 C.3   184  SER184      0.2130
     63  OG        26.3260    8.5800   15.8090 O.3   184  SER184     -0.2179
     64  N         25.8490    5.5180   14.0270 N.am  185  CYS185     -0.1953
     65  CA        26.7140    4.6790   13.2140 C.3   185  CYS185      0.1843
     66  C         26.8860    5.2630   11.8150 C.2   185  CYS185      0.2625
     67  O         26.2650    6.2780   11.4660 O.2   185  CYS185     -0.2714
     68  CB        26.1350    3.2650   13.1810 C.3   185  CYS185      0.0997
     69  SG        27.2630    1.9610   12.5690 S.3   185  CYS185     -0.0797
     70  N         27.7330    4.6290   11.0130 N.am  186  LYS186     -0.1977
     71  CA        28.0400    5.0950    9.6630 C.3   186  LYS186      0.1596
     72  C         26.8780    5.6680    8.8410 C.2   186  LYS186      0.2287
     73  O         26.9540    6.8010    8.3700 O.2   186  LYS186     -0.2864
     74  CB        28.6990    3.9740    8.8670 C.3   186  LYS186      0.0298
     75  CG        29.0140    4.3710    7.4320 C.3   186  LYS186      0.0038
     76  CD        29.5890    3.2140    6.6320 C.3   186  LYS186      0.0206
     77  CE        30.1980    3.6960    5.3180 C.3   186  LYS186      0.1093
     78  NZ        30.9110    2.5630    4.6440 N.3   186  LYS186     -0.1314
     79  N         25.5740    9.1640    9.4060 N.3   189  SER189     -0.1217
     80  CA        26.3950   10.3030    9.0220 C.3   189  SER189      0.1889
     81  C         25.5890   11.4780    8.4850 C.2   189  SER189      0.2288
     82  O         24.6980   11.2910    7.6540 O.2   189  SER189     -0.2866
     83  CB        27.4060    9.8950    7.9480 C.3   189  SER189      0.2089
     84  OG        28.4480    9.1200    8.4910 O.3   189  SER189     -0.2183
     85  N         26.4120   13.9770   12.9260 N.3   207  VAL207     -0.1231
     86  CA        26.9920   12.6370   13.0360 C.3   207  VAL207      0.1692
     87  C         28.1340   12.6470   12.0250 C.2   207  VAL207      0.2593
     88  O         27.9300   12.9100   10.8400 O.2   207  VAL207     -0.2718
     89  CB        25.9140   11.5460   12.7220 C.3   207  VAL207      0.0266
     90  CG1       26.4850   10.1610   12.8990 C.3   207  VAL207      0.0020
     91  CG2       24.7120   11.7350   13.6720 C.3   207  VAL207      0.0020
     92  N         29.3410   12.3610   12.5000 N.am  208  SER208     -0.1938
     93  CA        30.5300   12.4660   11.6490 C.3   208  SER208      0.2055
     94  C         31.4390   11.2460   11.5200 C.2   208  SER208      0.2643
     95  O         31.6050   10.6790   10.4360 O.2   208  SER208     -0.2714
     96  CB        31.3430   13.6620   12.1380 C.3   208  SER208      0.2130
     97  OG        32.5620   13.7470   11.4570 O.3   208  SER208     -0.2179
     98  N         32.0770   10.8500   12.6040 N.am  209  TRP209     -0.1959
     99  CA        32.9150    9.6700   12.5020 C.3   209  TRP209      0.1771
    100  C         32.9940    8.9480   13.8530 C.2   209  TRP209      0.2620
    101  O         32.2390    9.2550   14.7740 O.2   209  TRP209     -0.2715
    102  CB        34.3040   10.0630   11.9690 C.3   209  TRP209      0.0590
    103  CG        35.0940   11.0370   12.8470 C.ar  209  TRP209      0.0006
    104  CD1       35.0090   12.4040   12.8610 C.ar  209  TRP209      0.0946
    105  CD2       36.1130   10.6950   13.7930 C.ar  209  TRP209      0.0152
    106  NE1       35.9210   12.9300   13.7530 N.ar  209  TRP209     -0.2442
    107  CE2       36.6080   11.9000   14.3360 C.ar  209  TRP209      0.0810
    108  CE3       36.6560    9.4860   14.2290 C.ar  209  TRP209      0.0012
    109  CZ2       37.6250   11.9270   15.2930 C.ar  209  TRP209      0.0191
    110  CZ3       37.6620    9.5130   15.1770 C.ar  209  TRP209      0.0001
    111  CH2       38.1380   10.7240   15.7000 C.ar  209  TRP209      0.0015
    112  N         33.8990    7.9840   13.9520 N.am  210  GLY210     -0.1940
    113  CA        34.0820    7.2460   15.1810 C.3   210  GLY210      0.2014
    114  C         34.7720    5.9400   14.8490 C.2   210  GLY210      0.2639
    115  O         34.8480    5.5880   13.6790 O.2   210  GLY210     -0.2714
    116  N         35.2930    5.2380   15.8550 N.am  211  GLN211     -0.1963
    117  CA        35.9530    3.9580   15.6400 C.3   211  GLN211      0.1733
    118  C         34.8180    2.9550   15.6440 C.2   211  GLN211      0.2617
    119  O         34.1360    2.8010   16.6540 O.2   211  GLN211     -0.2715
    120  CB        36.9230    3.6520   16.7900 C.3   211  GLN211      0.0408
    121  CG        38.4090    3.7730   16.4430 C.3   211  GLN211      0.0908
    122  CD        38.9950    2.4590   15.9390 C.2   211  GLN211      0.2608
    123  OE1       39.7770    1.8180   16.6350 O.2   211  GLN211     -0.2717
    124  NE2       38.6030    2.0430   14.7350 N.am  211  GLN211     -0.0878
    125  N         34.6110    2.2750   14.5250 N.am  212  GLY212     -0.1940
    126  CA        33.5220    1.3230   14.4470 C.3   212  GLY212      0.2014
    127  C         32.2400    2.0170   14.8840 C.2   212  GLY212      0.2639
    128  O         32.0560    3.2280   14.6580 O.2   212  GLY212     -0.2714
    129  N         31.3560    1.2570   15.5220 N.am  213  CYS213     -0.1967
    130  CA        30.0910    1.7840   16.0150 C.3   213  CYS213      0.1712
    131  C         29.8150    1.2060   17.4010 C.2   213  CYS213      0.2296
    132  O         29.6400   -0.0160   17.5650 O.2   213  CYS213     -0.2864
    133  CB        28.9650    1.4260   15.0390 C.3   213  CYS213      0.0983
    134  SG        29.0710    2.3280   13.4600 S.3   213  CYS213     -0.0798
    135  N         31.2600    8.3570   20.0350 N.3   220  GLY220     -0.1210
    136  CA        30.9980    8.8580   18.7010 C.3   220  GLY220      0.1956
    137  C         31.5830   10.2610   18.6190 C.2   220  GLY220      0.2612
    138  O         31.8270   10.9110   19.6410 O.2   220  GLY220     -0.2717
    139  N         31.8480   10.7400   17.4170 N.am  221  VAL221     -0.1965
    140  CA        32.3940   12.0710   17.2890 C.3   221  VAL221      0.1727
    141  C         31.4720   12.8140   16.3530 C.2   221  VAL221      0.2616
    142  O         30.9540   12.2380   15.4070 O.2   221  VAL221     -0.2715
    143  CB        33.8140   12.0530   16.7160 C.3   221  VAL221      0.0290
    144  CG1       34.3780   13.4730   16.6530 C.3   221  VAL221      0.0023
    145  CG2       34.6920   11.1800   17.5640 C.3   221  VAL221      0.0023
    146  N         31.2730   14.0950   16.6310 N.am  222  TYR222     -0.1974
    147  CA        30.3780   14.9360   15.8530 C.3   222  TYR222      0.1639
    148  C         30.9860   16.2800   15.4700 C.2   222  TYR222      0.2290
    149  O         31.7680   16.8670   16.2210 O.2   222  TYR222     -0.2864
    150  CB        29.1240   15.2070   16.6770 C.3   222  TYR222      0.0560
    151  CG        28.4490   13.9650   17.1680 C.ar  222  TYR222     -0.0198
    152  CD1       28.9930   13.2080   18.2070 C.ar  222  TYR222     -0.0009
    153  CD2       27.3060   13.4990   16.5480 C.ar  222  TYR222     -0.0009
    154  CE1       28.3920   11.9880   18.6060 C.ar  222  TYR222      0.0417
    155  CE2       26.7210   12.3220   16.9270 C.ar  222  TYR222      0.0417
    156  CZ        27.2550   11.5720   17.9400 C.ar  222  TYR222      0.1957
    157  OH        26.6410   10.4040   18.2620 O.3   222  TYR222     -0.2866
@<TRIPOS>BOND
     1     4     3    2
     2    11    12    1
     3     3     2    1
     4    12    13    1
     5     2     1    1
     6     2     5    1
     7    13    15   am
     8    13    14    2
     9    78    77    1
    10     5     6    1
    11    15    16    1
    12    77    76    1
    13    21    19    1
    14    20    19    1
    15     8     6   ar
    16     8    10   ar
    17     6     7   ar
    18    19    16    1
    19    16    17    1
    20    76    75    1
    21    18    17    2
    22    10     9   ar
    23    35    34   ar
    24     7     9   ar
    25    17    22   am
    26    75    74    1
    27    82    81    2
    28    83    84    1
    29    83    80    1
    30    34    36   ar
    31    34    33    1
    32    31    30    1
    33    31    32    2
    34    30    29    1
    35    30    33    1
    36    73    72    2
    37    22    23    1
    38    81    80    1
    39    72    71    1
    40    74    71    1
    41    80    79    1
    42    23    24    1
    43    23    26    1
    44    71    70    1
    45    24    25    2
    46    95    94    2
    47    28    26    1
    48    26    27    1
    49    88    87    2
    50    70    66   am
    51    97    96    1
    52    67    66    2
    53    94    93    1
    54    94    98   am
    55    93    96    1
    56    93    92    1
    57    66    65    1
    58   102    99    1
    59   102   103    1
    60    87    92   am
    61    87    86    1
    62    48    47    1
    63    48    49    1
    64    99    98    1
    65    99   100    1
    66    69    68    1
    67    69   134    1
    68    89    90    1
    69    89    86    1
    70    89    91    1
    71   103   104   ar
    72   103   105   ar
    73   104   106   ar
    74    85    86    1
    75    47    44    1
    76    49    43    1
    77    68    65    1
    78    65    64    1
    79   134   133    1
    80   115   114    2
    81    44    43    1
    82    44    45    1
    83   106   107   ar
    84   105   108   ar
    85   105   107   ar
    86   100   112   am
    87   100   101    2
    88    43    39   am
    89   112   113    1
    90    64    60   am
    91    37    38    1
    92   108   110   ar
    93   107   109   ar
    94   126   125    1
    95   126   127    1
    96    39    38    1
    97    39    40    2
    98   125   118   am
    99   128   127    2
   100    38    41    1
   101   124   122   am
   102   114   113    1
   103   114   116   am
   104   127   129   am
   105    45    46    2
   106   133   130    1
   107   110   111   ar
   108   109   111   ar
   109    60    61    2
   110    60    59    1
   111   142   141    2
   112   148   147    1
   113   148   149    2
   114   129   130    1
   115   117   118    1
   116   117   116    1
   117   117   120    1
   118   118   119    2
   119    62    63    1
   120    62    59    1
   121   147   146    1
   122   147   150    1
   123   122   121    1
   124   122   123    2
   125   130   131    1
   126    59    58    1
   127    41    42    1
   128   141   146   am
   129   141   140    1
   130   121   120    1
   131   153   155   ar
   132   153   151   ar
   133   144   143    1
   134   150   151    1
   135   143   140    1
   136   143   145    1
   137   155   156   ar
   138   151   152   ar
   139   140   139    1
   140   131   132    2
   141    58    52   am
   142   139   137   am
   143   156   157    1
   144   156   154   ar
   145    53    52    2
   146   152   154   ar
   147    56    55   ar
   148    52    51    1
   149    57    55   ar
   150    55    54    1
   151   137   136    1
   152   137   138    2
   153   136   135    1
   154    54    51    1
   155    51    50    1
