@<TRIPOS>MOLECULE
tmp/1w0zA00.pdb
 189 187 0 0 0
SMALL
GASTEIGER

@<TRIPOS>ATOM
      1  N         22.6630    9.2470   36.7200 N.3    46  HIS46      -0.1241
      2  CA        23.0190   10.3800   35.8580 C.3    46  HIS46       0.1621
      3  C         22.0930   10.5650   34.6620 C.2    46  HIS46       0.2264
      4  O         22.0660   11.6340   34.0440 O.2    46  HIS46      -0.2867
      5  CB        24.5010   10.3400   35.4300 C.3    46  HIS46       0.0745
      6  CG        24.7810    9.5380   34.1930 C.ar   46  HIS46       0.0817
      7  ND1       25.5100    8.3680   34.2170 N.ar   46  HIS46      -0.2268
      8  CD2       24.5120    9.7830   32.8870 C.ar   46  HIS46       0.1154
      9  CE1       25.6820    7.9300   32.9840 C.ar   46  HIS46       0.1986
     10  NE2       25.0870    8.7710   32.1570 N.ar   46  HIS46      -0.2212
     11  N         32.5130   14.1410   39.5920 N.3    90  ASP90      -0.1225
     12  CA        33.7620   14.8790   39.6870 C.3    90  ASP90       0.1805
     13  C         34.2880   15.1630   38.2850 C.2    90  ASP90       0.2598
     14  O         33.5180   15.1760   37.3260 O.2    90  ASP90      -0.2718
     15  CB        34.7870   14.1020   40.5130 C.3    90  ASP90       0.1424
     16  CG        34.6360   14.3520   41.9970 C.2    90  ASP90       0.3668
     17  OD1       34.1630   13.4520   42.7120 O.co2  90  ASP90      -0.2456
     18  OD2       34.9840   15.4630   42.4460 O.co2  90  ASP90      -0.2456
     19  N         35.5930   15.3890   38.1680 N.am   91  THR91      -0.1939
     20  CA        36.2080   15.6800   36.8760 C.3    91  THR91       0.2028
     21  C         35.8700   14.5870   35.8560 C.2    91  THR91       0.2642
     22  O         35.4180   14.8790   34.7480 O.2    91  THR91      -0.2714
     23  CB        37.7360   15.8370   37.0130 C.3    91  THR91       0.1808
     24  OG1       38.0250   16.8220   38.0150 O.3    91  THR91      -0.2208
     25  CG2       38.3490   16.2840   35.6940 C.3    91  THR91       0.0379
     26  N         36.0360   13.3330   36.2640 N.am   92  LEU92      -0.1977
     27  CA        35.7380   12.1960   35.4040 C.3    92  LEU92       0.1596
     28  C         34.7590   11.2300   36.0640 C.2    92  LEU92       0.2287
     29  O         33.7670   10.8250   35.4640 O.2    92  LEU92      -0.2864
     30  CB        37.0230   11.4410   35.0550 C.3    92  LEU92       0.0297
     31  CG        38.0240   12.0940   34.1000 C.3    92  LEU92       0.0022
     32  CD1       39.2540   11.2200   33.9910 C.3    92  LEU92       0.0001
     33  CD2       37.3930   12.2930   32.7260 C.3    92  LEU92       0.0001
     34  N         31.8920    9.3730   38.2880 N.3    94  HIS94      -0.1241
     35  CA        30.4920    9.5390   38.6440 C.3    94  HIS94       0.1621
     36  C         30.3060    8.5310   39.7690 C.2    94  HIS94       0.2264
     37  O         30.4620    7.3260   39.5680 O.2    94  HIS94      -0.2867
     38  CB        29.5680    9.2250   37.4620 C.3    94  HIS94       0.0745
     39  CG        29.5750   10.2830   36.4020 C.ar   94  HIS94       0.0817
     40  ND1       28.5310   11.1640   36.2240 N.ar   94  HIS94      -0.2268
     41  CD2       30.5190   10.6300   35.4970 C.ar   94  HIS94       0.1154
     42  CE1       28.8350   12.0150   35.2590 C.ar   94  HIS94       0.1986
     43  NE2       30.0350   11.7110   34.8010 N.ar   94  HIS94      -0.2212
     44  N         26.0830    5.2910   20.7690 N.3   142  LYS142     -0.1245
     45  CA        26.8870    5.6360   19.5940 C.3   142  LYS142      0.1561
     46  C         27.8430    4.5480   19.1270 C.2   142  LYS142      0.2260
     47  O         28.4800    3.8650   19.9380 O.2   142  LYS142     -0.2867
     48  CB        27.6920    6.9160   19.8420 C.3   142  LYS142      0.0271
     49  CG        26.8640    8.1770   19.9900 C.3   142  LYS142      0.0035
     50  CD        27.7720    9.3780   20.1610 C.3   142  LYS142      0.0206
     51  CE        26.9760   10.6580   20.2900 C.3   142  LYS142      0.1093
     52  NZ        27.8840   11.8350   20.3730 N.3   142  LYS142     -0.1314
     53  N         32.4790    7.9030   17.9720 N.3   145  SER145     -0.1217
     54  CA        32.4790    9.1340   18.7640 C.3   145  SER145      0.1889
     55  C         31.9870   10.3440   17.9670 C.2   145  SER145      0.2288
     56  O         31.3680   11.2540   18.5230 O.2   145  SER145     -0.2866
     57  CB        33.8800    9.4170   19.3200 C.3   145  SER145      0.2089
     58  OG        34.2530    8.4520   20.2870 O.3   145  SER145     -0.2183
     59  N         33.9440   -0.9720   22.7290 N.3   192  ASP192     -0.1225
     60  CA        33.6500   -0.3650   24.0260 C.3   192  ASP192      0.1805
     61  C         32.2370    0.2190   24.0320 C.2   192  ASP192      0.2598
     62  O         31.5890    0.3140   22.9880 O.2   192  ASP192     -0.2718
     63  CB        34.6720    0.7710   24.2320 C.3   192  ASP192      0.1424
     64  CG        34.7040    1.3250   25.6480 C.2   192  ASP192      0.3668
     65  OD1       34.1410    0.7140   26.5800 O.co2 192  ASP192     -0.2456
     66  OD2       35.3300    2.3940   25.8210 O.co2 192  ASP192     -0.2456
     67  N         31.7330    0.5550   25.2180 N.am  193  SER193     -0.1938
     68  CA        30.4300    1.1980   25.3140 C.3   193  SER193      0.2055
     69  C         30.7100    2.6860   25.0570 C.2   193  SER193      0.2643
     70  O         31.8650    3.1090   25.0560 O.2   193  SER193     -0.2714
     71  CB        29.7960    0.9770   26.6940 C.3   193  SER193      0.2130
     72  OG        30.7200    1.2140   27.7380 O.3   193  SER193     -0.2179
     73  N         29.6700    3.4780   24.8300 N.am  194  CYS194     -0.1953
     74  CA        29.8680    4.8950   24.5540 C.3   194  CYS194      0.1843
     75  C         28.6350    5.6820   24.9910 C.2   194  CYS194      0.2625
     76  O         27.7600    5.1430   25.6640 O.2   194  CYS194     -0.2714
     77  CB        30.1300    5.0850   23.0490 C.3   194  CYS194      0.0997
     78  SG        30.8850    6.6720   22.5540 S.3   194  CYS194     -0.0797
     79  N         28.5850    6.9580   24.6230 N.am  195  GLN195     -0.1977
     80  CA        27.4490    7.8230   24.9520 C.3   195  GLN195      0.1601
     81  C         26.1620    7.1680   24.4340 C.2   195  GLN195      0.2287
     82  O         26.0970    6.7320   23.2820 O.2   195  GLN195     -0.2864
     83  CB        27.6480    9.2040   24.3090 C.3   195  GLN195      0.0394
     84  CG        26.5250   10.2090   24.5500 C.3   195  GLN195      0.0908
     85  CD        26.7710   11.5480   23.8590 C.2   195  GLN195      0.2608
     86  OE1       27.8920   11.8510   23.4360 O.2   195  GLN195     -0.2717
     87  NE2       25.7200   12.3570   23.7460 N.am  195  GLN195     -0.0878
     88  N         24.7210    4.3650   28.5320 N.3   198  SER198     -0.1217
     89  CA        24.5670    4.5850   29.9710 C.3   198  SER198      0.1889
     90  C         23.3540    3.8740   30.5530 C.2   198  SER198      0.2288
     91  O         22.2970    3.8150   29.9280 O.2   198  SER198     -0.2866
     92  CB        24.4650    6.0850   30.2680 C.3   198  SER198      0.2089
     93  OG        25.6900    6.7430   30.0120 O.3   198  SER198     -0.2183
     94  N         26.5650    0.5050   32.9780 N.3   216  VAL216     -0.1231
     95  CA        27.3760    1.4480   32.2050 C.3   216  VAL216      0.1692
     96  C         27.2840    2.8310   32.8370 C.2   216  VAL216      0.2593
     97  O         26.1950    3.3920   32.9570 O.2   216  VAL216     -0.2718
     98  CB        26.9220    1.5340   30.7250 C.3   216  VAL216      0.0266
     99  CG1       27.8360    2.5050   29.9610 C.3   216  VAL216      0.0020
    100  CG2       26.9570    0.1560   30.0780 C.3   216  VAL216      0.0020
    101  N         28.4340    3.3980   33.2000 N.am  217  SER217     -0.1938
    102  CA        28.4500    4.7030   33.8510 C.3   217  SER217      0.2055
    103  C         29.2930    5.7960   33.1920 C.2   217  SER217      0.2643
    104  O         28.7590    6.8280   32.7840 O.2   217  SER217     -0.2714
    105  CB        28.8690    4.5440   35.3240 C.3   217  SER217      0.2130
    106  OG        28.8500    5.7860   36.0110 O.3   217  SER217     -0.2179
    107  N         30.6050    5.5890   33.1080 N.am  218  TRP218     -0.1959
    108  CA        31.4710    6.6190   32.5380 C.3   218  TRP218      0.1771
    109  C         32.7750    6.1350   31.9160 C.2   218  TRP218      0.2620
    110  O         33.0960    4.9480   31.9350 O.2   218  TRP218     -0.2715
    111  CB        31.7770    7.6940   33.5980 C.3   218  TRP218      0.0590
    112  CG        32.5370    7.2040   34.8090 C.ar  218  TRP218      0.0006
    113  CD1       32.0100    6.6370   35.9410 C.ar  218  TRP218      0.0946
    114  CD2       33.9510    7.2980   35.0320 C.ar  218  TRP218      0.0152
    115  NE1       33.0080    6.3830   36.8550 N.ar  218  TRP218     -0.2442
    116  CE2       34.2080    6.7780   36.3230 C.ar  218  TRP218      0.0810
    117  CE3       35.0270    7.7710   34.2660 C.ar  218  TRP218      0.0012
    118  CZ2       35.5000    6.7180   36.8650 C.ar  218  TRP218      0.0191
    119  CZ3       36.3120    7.7110   34.8050 C.ar  218  TRP218      0.0001
    120  CH2       36.5350    7.1890   36.0930 C.ar  218  TRP218      0.0015
    121  N         33.5150    7.0880   31.3600 N.am  219  GLY219     -0.1940
    122  CA        34.7840    6.7910   30.7290 C.3   219  GLY219      0.2014
    123  C         35.2810    7.9850   29.9360 C.2   219  GLY219      0.2639
    124  O         34.4940    8.8410   29.5270 O.2   219  GLY219     -0.2714
    125  N         36.5960    8.0580   29.7520 N.am  220  ARG220     -0.1963
    126  CA        37.2120    9.1350   28.9830 C.3   220  ARG220      0.1729
    127  C         37.1110    8.7560   27.5040 C.2   220  ARG220      0.2617
    128  O         37.7710    7.8200   27.0500 O.2   220  ARG220     -0.2715
    129  CB        38.6780    9.3070   29.3880 C.3   220  ARG220      0.0348
    130  CG        39.4490   10.2930   28.5260 C.3   220  ARG220      0.0492
    131  CD        38.9020   11.7080   28.6510 C.3   220  ARG220      0.2205
    132  NE        38.9840   12.4410   27.3870 N.pl3 220  ARG220     -0.0865
    133  CZ        40.1100   12.6930   26.7230 C.cat 220  ARG220      0.5346
    134  NH1       41.2820   12.2760   27.1920 N.pl3 220  ARG220      0.1354
    135  NH2       40.0650   13.3630   25.5800 N.pl3 220  ARG220      0.1354
    136  N         36.2690    9.4770   26.7700 N.am  221  GLY221     -0.1940
    137  CA        36.0680    9.1900   25.3630 C.3   221  GLY221      0.2014
    138  C         35.4270    7.8260   25.1950 C.2   221  GLY221      0.2639
    139  O         34.7460    7.3410   26.1010 O.2   221  GLY221     -0.2714
    140  N         35.6550    7.1980   24.0440 N.am  222  CYS222     -0.1953
    141  CA        35.1080    5.8680   23.7600 C.3   222  CYS222      0.1843
    142  C         36.1330    5.0480   22.9750 C.2   222  CYS222      0.2625
    143  O         36.5990    5.4780   21.9180 O.2   222  CYS222     -0.2714
    144  CB        33.8130    5.9850   22.9490 C.3   222  CYS222      0.0997
    145  SG        32.4680    6.8590   23.8120 S.3   222  CYS222     -0.0797
    146  N         36.4890    3.8800   23.5070 N.am  223  ALA223     -0.1977
    147  CA        37.4660    2.9880   22.8760 C.3   223  ALA223      0.1597
    148  C         38.8470    3.6350   22.7250 C.2   223  ALA223      0.2287
    149  O         39.5370    3.4360   21.7200 O.2   223  ALA223     -0.2864
    150  CB        36.9460    2.4950   21.5170 C.3   223  ALA223      0.0319
    151  N         42.0800    3.8410   28.4390 N.3   227  LYS227     -0.1231
    152  CA        40.9090    4.4980   29.0160 C.3   227  LYS227      0.1678
    153  C         39.7140    3.5400   28.9620 C.2   227  LYS227      0.2434
    154  O         38.8540    3.6390   28.0830 O.2   227  LYS227     -0.2733
    155  CB        40.5910    5.7910   28.2470 C.3   227  LYS227      0.0284
    156  CG        41.7560    6.7700   28.1470 C.3   227  LYS227      0.0035
    157  CD        42.2060    7.2500   29.5180 C.3   227  LYS227      0.0206
    158  CE        43.4860    8.0670   29.4140 C.3   227  LYS227      0.1093
    159  NZ        43.9920    8.4890   30.7460 N.3   227  LYS227     -0.1314
    160  N         39.6420    2.5990   29.9150 N.am  228  PRO228     -0.2718
    161  CA        38.5510    1.6200   29.9720 C.3   228  PRO228      0.1535
    162  C         37.1930    2.2260   30.3170 C.2   228  PRO228      0.2599
    163  O         37.1000    3.3650   30.7780 O.2   228  PRO228     -0.2715
    164  CB        38.9870    0.6850   31.1090 C.3   228  PRO228      0.0310
    165  CG        40.4750    0.8930   31.2130 C.3   228  PRO228      0.0237
    166  CD        40.6070    2.3660   31.0010 C.3   228  PRO228      0.0939
    167  N         36.1410    1.4520   30.0810 N.am  229  GLY229     -0.1941
    168  CA        34.8130    1.8960   30.4500 C.3   229  GLY229      0.2014
    169  C         34.7090    1.6360   31.9450 C.2   229  GLY229      0.2639
    170  O         35.3000    0.6750   32.4480 O.2   229  GLY229     -0.2714
    171  N         34.0310    2.5140   32.6750 N.am  230  VAL230     -0.1963
    172  CA        33.8770    2.3260   34.1170 C.3   230  VAL230      0.1727
    173  C         32.4100    2.0410   34.4130 C.2   230  VAL230      0.2616
    174  O         31.5130    2.7170   33.8990 O.2   230  VAL230     -0.2715
    175  CB        34.3830    3.5400   34.9220 C.3   230  VAL230      0.0290
    176  CG1       34.3700    3.2180   36.4210 C.3   230  VAL230      0.0023
    177  CG2       35.7950    3.9160   34.4720 C.3   230  VAL230      0.0023
    178  N         32.1790    0.9980   35.2030 N.am  231  TYR231     -0.1974
    179  CA        30.8400    0.5520   35.5420 C.3   231  TYR231      0.1639
    180  C         30.5710    0.5750   37.0400 C.2   231  TYR231      0.2290
    181  O         31.4750    0.3660   37.8430 O.2   231  TYR231     -0.2864
    182  CB        30.6380   -0.8760   35.0130 C.3   231  TYR231      0.0560
    183  CG        30.9080   -1.0190   33.5220 C.ar  231  TYR231     -0.0198
    184  CD1       32.2080   -0.9780   33.0200 C.ar  231  TYR231     -0.0009
    185  CD2       29.8550   -1.1260   32.6120 C.ar  231  TYR231     -0.0009
    186  CE1       32.4540   -1.0280   31.6420 C.ar  231  TYR231      0.0417
    187  CE2       30.0860   -1.1760   31.2380 C.ar  231  TYR231      0.0417
    188  CZ        31.3830   -1.1240   30.7600 C.ar  231  TYR231      0.1957
    189  OH        31.6060   -1.1500   29.4070 O.3   231  TYR231     -0.2866
@<TRIPOS>BOND
     1    55    56    2
     2    55    54    1
     3    53    54    1
     4    54    57    1
     5    46    45    1
     6    46    47    2
     7    57    58    1
     8    45    48    1
     9    45    44    1
    10    48    49    1
    11    49    50    1
    12    50    51    1
    13    51    52    1
    14   150   147    1
    15   149   148    2
    16   143   142    2
    17    78    77    1
    18    78   145    1
    19   148   147    1
    20    59    60    1
    21   147   146    1
    22   144   141    1
    23   144   145    1
    24   142   146   am
    25   142   141    1
    26    62    61    2
    27    77    74    1
    28    82    81    2
    29    86    85    2
    30    87    85   am
    31   141   140    1
    32    85    84    1
    33    60    61    1
    34    60    63    1
    35    61    67   am
    36   140   138   am
    37    63    64    1
    38    83    84    1
    39    83    80    1
    40    81    80    1
    41    74    73    1
    42    74    75    1
    43    79    80    1
    44    79    75   am
    45    73    69   am
    46    75    76    2
    47    70    69    2
    48    69    68    1
    49   138   137    1
    50   138   139    2
    51    67    68    1
    52    68    71    1
    53   137   136    1
    54   135   133    1
    55    64    66   ar
    56    64    65   ar
    57    71    72    1
    58   133   134    1
    59   133   132    2
    60   136   127   am
    61   128   127    2
    62   132   131    1
    63   127   126    1
    64   154   153    2
    65   156   155    1
    66   156   157    1
    67   155   152    1
    68   151   152    1
    69   130   131    1
    70   130   129    1
    71    88    89    1
    72   153   152    1
    73   153   160   am
    74   126   129    1
    75   126   125    1
    76   189   188    1
    77   158   157    1
    78   158   159    1
    79   124   123    2
    80   125   123   am
    81   160   161    1
    82   160   166    1
    83    91    90    2
    84   123   122    1
    85    99    98    1
    86    89    92    1
    87    89    90    1
    88   161   162    1
    89   161   164    1
    90    93    92    1
    91   100    98    1
    92   167   162   am
    93   167   168    1
    94   162   163    2
    95   168   169    1
    96    98    95    1
    97   122   121    1
    98   188   187   ar
    99   188   186   ar
   100   166   165    1
   101   164   165    1
   102   187   185   ar
   103   121   109   am
   104   186   184   ar
   105   109   110    2
   106   109   108    1
   107   169   170    2
   108   169   171   am
   109    10     8   ar
   110    10     9   ar
   111    95    96    1
   112    95    94    1
   113   108   107    1
   114   108   111    1
   115   185   183   ar
   116   171   172    1
   117    33    31    1
   118   104   103    2
   119    96    97    2
   120    96   101   am
   121     8     6   ar
   122     9     7   ar
   123   184   183   ar
   124   107   103   am
   125   103   102    1
   126   101   102    1
   127   183   182    1
   128   111   112    1
   129   102   105    1
   130   174   173    2
   131    32    31    1
   132     4     3    2
   133    31    30    1
   134   172   173    1
   135   172   175    1
   136     6     7   ar
   137     6     5    1
   138   117   119   ar
   139   117   114   ar
   140   173   178   am
   141   177   175    1
   142     3     2    1
   143    22    21    2
   144    43    42   ar
   145    43    41   ar
   146   119   120   ar
   147   112   114   ar
   148   112   113   ar
   149   175   176    1
   150   182   179    1
   151   114   116   ar
   152    30    27    1
   153   178   179    1
   154    42    40   ar
   155   105   106    1
   156    27    28    1
   157    27    26    1
   158     5     2    1
   159    29    28    2
   160    41    39   ar
   161   179   180    1
   162    25    23    1
   163    21    26   am
   164    21    20    1
   165     2     1    1
   166   113   115   ar
   167   120   118   ar
   168    40    39   ar
   169   116   115   ar
   170   116   118   ar
   171    39    38    1
   172    20    23    1
   173    20    19    1
   174    23    24    1
   175   180   181    2
   176    14    13    2
   177    38    35    1
   178    19    13   am
   179    13    12    1
   180    34    35    1
   181    35    36    1
   182    37    36    2
   183    11    12    1
   184    12    15    1
   185    15    16    1
   186    16    18   ar
   187    16    17   ar
