@<TRIPOS>MOLECULE
tmp/1w10A00.pdb
 173 170 0 0 0
SMALL
GASTEIGER

@<TRIPOS>ATOM
      1  N         18.2540    6.2290   28.0280 N.3    31  CYS31      -0.1235
      2  CA        19.2220    5.2620   28.5140 C.3    31  CYS31       0.1677
      3  C         18.7260    3.8240   28.4540 C.2    31  CYS31       0.2270
      4  O         17.5500    3.5570   28.2220 O.2    31  CYS31      -0.2867
      5  CB        19.5500    5.5730   29.9840 C.3    31  CYS31       0.0956
      6  SG        20.7240    6.9240   30.3070 S.3    31  CYS31      -0.0801
      7  N         22.4560    9.2450   36.7150 N.3    46  HIS46      -0.1241
      8  CA        22.7880   10.3710   35.8360 C.3    46  HIS46       0.1621
      9  C         21.8620   10.5280   34.6380 C.2    46  HIS46       0.2264
     10  O         21.7920   11.6000   34.0390 O.2    46  HIS46      -0.2867
     11  CB        24.2770   10.3570   35.4140 C.3    46  HIS46       0.0745
     12  CG        24.5810    9.5540   34.1820 C.ar   46  HIS46       0.0817
     13  ND1       25.2670    8.3600   34.2270 N.ar   46  HIS46      -0.2268
     14  CD2       24.3660    9.8110   32.8700 C.ar   46  HIS46       0.1154
     15  CE1       25.4640    7.9180   32.9980 C.ar   46  HIS46       0.1986
     16  NE2       24.9270    8.7810   32.1560 N.ar   46  HIS46      -0.2212
     17  N         35.0970   15.4690   37.7830 N.3    91  THR91      -0.1203
     18  CA        35.6470   15.7820   36.4650 C.3    91  THR91       0.1994
     19  C         35.2990   14.6740   35.4700 C.2    91  THR91       0.2617
     20  O         34.7360   14.9330   34.4020 O.2    91  THR91      -0.2717
     21  CB        37.1880   15.9520   36.5360 C.3    91  THR91       0.1784
     22  OG1       37.5160   16.9170   37.5450 O.3    91  THR91      -0.2211
     23  CG2       37.7430   16.4300   35.1970 C.3    91  THR91       0.0376
     24  N         35.5970   13.4370   35.8550 N.am   92  LEU92      -0.1979
     25  CA        35.3270   12.2740   35.0190 C.3    92  LEU92       0.1596
     26  C         34.4060   11.2690   35.7030 C.2    92  LEU92       0.2287
     27  O         33.4450   10.7850   35.1100 O.2    92  LEU92      -0.2864
     28  CB        36.6360   11.5680   34.6660 C.3    92  LEU92       0.0297
     29  CG        37.6320   12.2660   33.7420 C.3    92  LEU92       0.0022
     30  CD1       38.8380   11.3650   33.5510 C.3    92  LEU92       0.0001
     31  CD2       36.9730   12.5620   32.4040 C.3    92  LEU92       0.0001
     32  N         31.6510    9.4030   38.0740 N.3    94  HIS94      -0.1241
     33  CA        30.2660    9.5630   38.4880 C.3    94  HIS94       0.1621
     34  C         30.0890    8.5150   39.5700 C.2    94  HIS94       0.2264
     35  O         30.2340    7.3170   39.3200 O.2    94  HIS94      -0.2867
     36  CB        29.3150    9.3380   37.3140 C.3    94  HIS94       0.0745
     37  CG        29.3600   10.4370   36.2980 C.ar   94  HIS94       0.0817
     38  ND1       28.3450   11.3570   36.1500 N.ar   94  HIS94      -0.2268
     39  CD2       30.3190   10.7920   35.4130 C.ar   94  HIS94       0.1154
     40  CE1       28.6780   12.2330   35.2190 C.ar   94  HIS94       0.1986
     41  NE2       29.8710   11.9120   34.7560 N.ar   94  HIS94      -0.2212
     42  N         25.9590    5.2330   20.5450 N.3   142  LYS142     -0.1245
     43  CA        26.8070    5.5720   19.4040 C.3   142  LYS142      0.1561
     44  C         27.7010    4.4370   18.9210 C.2   142  LYS142      0.2260
     45  O         28.2330    3.6660   19.7220 O.2   142  LYS142     -0.2867
     46  CB        27.6900    6.7790   19.7270 C.3   142  LYS142      0.0271
     47  CG        26.9430    8.0750   19.9680 C.3   142  LYS142      0.0035
     48  CD        27.9150    9.2340   20.0060 C.3   142  LYS142      0.0206
     49  CE        27.2120   10.5420   20.3210 C.3   142  LYS142      0.1093
     50  NZ        28.1630   11.6820   20.2310 N.3   142  LYS142     -0.1314
     51  N         33.7420   -0.8780   22.7720 N.3   192  ASP192     -0.1225
     52  CA        33.4390   -0.2490   24.0550 C.3   192  ASP192      0.1805
     53  C         32.0230    0.3300   24.0330 C.2   192  ASP192      0.2598
     54  O         31.4160    0.4690   22.9710 O.2   192  ASP192     -0.2718
     55  CB        34.4470    0.9020   24.2620 C.3   192  ASP192      0.1424
     56  CG        34.4570    1.4630   25.6800 C.2   192  ASP192      0.3668
     57  OD1       33.8530    0.8580   26.5890 O.co2 192  ASP192     -0.2456
     58  OD2       35.0980    2.5210   25.8840 O.co2 192  ASP192     -0.2456
     59  N         31.4770    0.6190   25.2130 N.am  193  SER193     -0.1938
     60  CA        30.1730    1.2530   25.2860 C.3   193  SER193      0.2055
     61  C         30.4820    2.7350   25.0260 C.2   193  SER193      0.2643
     62  O         31.6500    3.1350   25.0270 O.2   193  SER193     -0.2714
     63  CB        29.5310    1.0500   26.6600 C.3   193  SER193      0.2130
     64  OG        30.4230    1.3770   27.7000 O.3   193  SER193     -0.2179
     65  N         29.4570    3.5450   24.7880 N.am  194  CYS194     -0.1953
     66  CA        29.6780    4.9610   24.5000 C.3   194  CYS194      0.1843
     67  C         28.4370    5.7540   24.9080 C.2   194  CYS194      0.2625
     68  O         27.5500    5.2110   25.5610 O.2   194  CYS194     -0.2714
     69  CB        29.9630    5.1180   22.9950 C.3   194  CYS194      0.0997
     70  SG        30.7200    6.7010   22.4820 S.3   194  CYS194     -0.0797
     71  N         28.3830    7.0410   24.5670 N.am  195  GLN195     -0.1963
     72  CA        27.2060    7.8510   24.8910 C.3   195  GLN195      0.1733
     73  C         25.9830    7.1730   24.2710 C.2   195  GLN195      0.2616
     74  O         26.0470    6.6450   23.1570 O.2   195  GLN195     -0.2715
     75  CB        27.3470    9.2870   24.3580 C.3   195  GLN195      0.0408
     76  CG        28.1540   10.2300   25.2520 C.3   195  GLN195      0.0908
     77  CD        29.6130    9.8470   25.3570 C.2   195  GLN195      0.2608
     78  OE1       30.2750    9.6000   24.3520 O.2   195  GLN195     -0.2717
     79  NE2       30.1200    9.7780   26.5780 N.am  195  GLN195     -0.0878
     80  N         24.8760    7.1730   25.0020 N.am  196  GLY196     -0.1955
     81  CA        23.6780    6.5150   24.5120 C.3   196  GLY196      0.1869
     82  C         23.5560    5.1130   25.0940 C.2   196  GLY196      0.2309
     83  O         22.4850    4.5130   25.0320 O.2   196  GLY196     -0.2863
     84  N         24.5340    4.4100   28.4070 N.3   198  SER198     -0.1217
     85  CA        24.4220    4.4870   29.8590 C.3   198  SER198      0.1889
     86  C         23.1770    3.8430   30.4300 C.2   198  SER198      0.2288
     87  O         22.1280    3.8190   29.7950 O.2   198  SER198     -0.2866
     88  CB        24.5170    5.9320   30.3290 C.3   198  SER198      0.2089
     89  OG        25.8170    6.4210   30.0850 O.3   198  SER198     -0.2183
     90  N         26.4400    0.4970   32.8080 N.3   216  VAL216     -0.1231
     91  CA        27.2410    1.4680   32.0580 C.3   216  VAL216      0.1692
     92  C         27.1430    2.8580   32.6970 C.2   216  VAL216      0.2593
     93  O         26.0620    3.4360   32.8060 O.2   216  VAL216     -0.2718
     94  CB        26.8290    1.5380   30.5740 C.3   216  VAL216      0.0266
     95  CG1       27.7600    2.4930   29.8270 C.3   216  VAL216      0.0020
     96  CG2       26.8740    0.1540   29.9380 C.3   216  VAL216      0.0020
     97  N         28.2830    3.3990   33.1080 N.am  217  SER217     -0.1938
     98  CA        28.2860    4.6950   33.7740 C.3   217  SER217      0.2055
     99  C         29.1010    5.7970   33.1120 C.2   217  SER217      0.2643
    100  O         28.5510    6.8350   32.7480 O.2   217  SER217     -0.2714
    101  CB        28.7300    4.5250   35.2340 C.3   217  SER217      0.2130
    102  OG        28.7940    5.7740   35.8990 O.3   217  SER217     -0.2179
    103  N         30.4060    5.5880   32.9640 N.am  218  TRP218     -0.1959
    104  CA        31.2550    6.6270   32.3800 C.3   218  TRP218      0.1771
    105  C         32.5840    6.1400   31.8080 C.2   218  TRP218      0.2620
    106  O         32.9130    4.9590   31.8730 O.2   218  TRP218     -0.2715
    107  CB        31.5260    7.7210   33.4310 C.3   218  TRP218      0.0590
    108  CG        32.2970    7.2550   34.6400 C.ar  218  TRP218      0.0006
    109  CD1       31.7850    6.6740   35.7740 C.ar  218  TRP218      0.0946
    110  CD2       33.7140    7.3490   34.8460 C.ar  218  TRP218      0.0152
    111  NE1       32.7960    6.4060   36.6670 N.ar  218  TRP218     -0.2442
    112  CE2       33.9890    6.8070   36.1240 C.ar  218  TRP218      0.0810
    113  CE3       34.7780    7.8370   34.0730 C.ar  218  TRP218      0.0012
    114  CZ2       35.2870    6.7390   36.6470 C.ar  218  TRP218      0.0191
    115  CZ3       36.0690    7.7700   34.5930 C.ar  218  TRP218      0.0001
    116  CH2       36.3110    7.2250   35.8700 C.ar  218  TRP218      0.0015
    117  N         33.3490    7.0860   31.2730 N.am  219  GLY219     -0.1940
    118  CA        34.6490    6.7890   30.7020 C.3   219  GLY219      0.2014
    119  C         35.1570    7.9960   29.9360 C.2   219  GLY219      0.2639
    120  O         34.3720    8.8850   29.6030 O.2   219  GLY219     -0.2714
    121  N         36.4690    8.0590   29.7050 N.am  220  ARG220     -0.1963
    122  CA        37.0700    9.1530   28.9450 C.3   220  ARG220      0.1729
    123  C         36.9130    8.7970   27.4670 C.2   220  ARG220      0.2617
    124  O         37.5470    7.8620   26.9830 O.2   220  ARG220     -0.2715
    125  CB        38.5540    9.2970   29.3000 C.3   220  ARG220      0.0348
    126  CG        39.3510   10.2850   28.4350 C.3   220  ARG220      0.0492
    127  CD        38.9030   11.7340   28.6090 C.3   220  ARG220      0.2205
    128  NE        37.7280   12.0700   27.8060 N.pl3 220  ARG220     -0.0865
    129  CZ        37.7680   12.4590   26.5320 C.cat 220  ARG220      0.5346
    130  NH1       38.9310   12.5660   25.8990 N.pl3 220  ARG220      0.1354
    131  NH2       36.6410   12.7440   25.8900 N.pl3 220  ARG220      0.1354
    132  N         36.0580    9.5340   26.7630 N.am  221  GLY221     -0.1940
    133  CA        35.8210    9.2570   25.3580 C.3   221  GLY221      0.2014
    134  C         35.2490    7.8590   25.2080 C.2   221  GLY221      0.2639
    135  O         34.7010    7.3060   26.1690 O.2   221  GLY221     -0.2714
    136  N         35.4030    7.2730   24.0230 N.am  222  CYS222     -0.1967
    137  CA        34.9090    5.9250   23.7460 C.3   222  CYS222      0.1712
    138  C         35.9420    5.1110   22.9680 C.2   222  CYS222      0.2296
    139  O         36.4040    5.5370   21.9110 O.2   222  CYS222     -0.2864
    140  CB        33.6170    5.9860   22.9370 C.3   222  CYS222      0.0983
    141  SG        32.2860    6.9140   23.7460 S.3   222  CYS222     -0.0798
    142  N         41.8960    3.8010   28.3450 N.3   227  LYS227     -0.1231
    143  CA        40.7320    4.4530   28.9350 C.3   227  LYS227      0.1678
    144  C         39.5330    3.5000   28.8950 C.2   227  LYS227      0.2434
    145  O         38.6620    3.6030   28.0230 O.2   227  LYS227     -0.2733
    146  CB        40.4120    5.7540   28.1800 C.3   227  LYS227      0.0284
    147  CG        41.5790    6.7370   28.0880 C.3   227  LYS227      0.0035
    148  CD        41.9870    7.2540   29.4610 C.3   227  LYS227      0.0206
    149  CE        43.2690    8.0700   29.3780 C.3   227  LYS227      0.1093
    150  NZ        43.7770    8.4680   30.7190 N.3   227  LYS227     -0.1314
    151  N         39.4700    2.5570   29.8520 N.am  228  PRO228     -0.2718
    152  CA        38.3820    1.5780   29.9350 C.3   228  PRO228      0.1535
    153  C         37.0200    2.1890   30.2530 C.2   228  PRO228      0.2599
    154  O         36.9240    3.3040   30.7770 O.2   228  PRO228     -0.2715
    155  CB        38.8130    0.6780   31.1040 C.3   228  PRO228      0.0310
    156  CG        40.3090    0.8750   31.1980 C.3   228  PRO228      0.0237
    157  CD        40.4520    2.3460   30.9310 C.3   228  PRO228      0.0939
    158  N         35.9630    1.4520   29.9280 N.am  229  GLY229     -0.1955
    159  CA        34.6350    1.9110   30.2720 C.3   229  GLY229      0.1869
    160  C         34.5180    1.6560   31.7680 C.2   229  GLY229      0.2309
    161  O         35.0790    0.6760   32.2620 O.2   229  GLY229     -0.2863
    162  N         32.0250    1.0430   35.0480 N.3   231  TYR231     -0.1241
    163  CA        30.6860    0.5750   35.3760 C.3   231  TYR231      0.1605
    164  C         30.4130    0.6020   36.8650 C.2   231  TYR231      0.2264
    165  O         31.3220    0.4300   37.6610 O.2   231  TYR231     -0.2867
    166  CB        30.5270   -0.8640   34.8660 C.3   231  TYR231      0.0534
    167  CG        30.7770   -0.9990   33.3750 C.ar  231  TYR231     -0.0201
    168  CD1       32.0720   -0.9890   32.8540 C.ar  231  TYR231     -0.0009
    169  CD2       29.7140   -1.0550   32.4810 C.ar  231  TYR231     -0.0009
    170  CE1       32.2920   -1.0210   31.4620 C.ar  231  TYR231      0.0417
    171  CE2       29.9230   -1.0900   31.1090 C.ar  231  TYR231      0.0417
    172  CZ        31.2040   -1.0700   30.6060 C.ar  231  TYR231      0.1957
    173  OH        31.3800   -1.0850   29.2410 O.3   231  TYR231     -0.2866
@<TRIPOS>BOND
     1    44    43    1
     2    44    45    2
     3    43    46    1
     4    43    42    1
     5    46    47    1
     6    47    48    1
     7    48    49    1
     8    50    49    1
     9   139   138    2
    10    70    69    1
    11    70   141    1
    12    51    52    1
    13   140   137    1
    14   140   141    1
    15   138   137    1
    16    54    53    2
    17    69    66    1
    18    74    73    2
    19   137   136    1
    20   136   134   am
    21    53    52    1
    22    53    59   am
    23    52    55    1
    24    55    56    1
    25    73    72    1
    26    73    80   am
    27    78    77    2
    28    75    72    1
    29    75    76    1
    30    66    65    1
    31    66    67    1
    32    81    80    1
    33    81    82    1
    34    71    72    1
    35    71    67   am
    36    65    61   am
    37    67    68    2
    38    61    62    2
    39    61    60    1
    40    83    82    2
    41   134   133    1
    42   134   135    2
    43    59    60    1
    44    76    77    1
    45    60    63    1
    46    77    79   am
    47   133   132    1
    48    56    58   ar
    49    56    57   ar
    50   131   129    1
    51   130   129    1
    52   129   128    2
    53    63    64    1
    54   132   123   am
    55   124   123    2
    56   123   122    1
    57   128   127    1
    58   145   144    2
    59     1     2    1
    60   147   146    1
    61   147   148    1
    62   146   143    1
    63     4     3    2
    64   142   143    1
    65    84    85    1
    66   126   127    1
    67   126   125    1
    68     3     2    1
    69     2     5    1
    70   144   143    1
    71   144   151   am
    72   122   125    1
    73   122   121    1
    74   173   172    1
    75   149   148    1
    76   149   150    1
    77   120   119    2
    78   121   119   am
    79    87    86    2
    80    95    94    1
    81   151   152    1
    82   151   157    1
    83    85    88    1
    84    85    86    1
    85   158   153   am
    86   158   159    1
    87   152   153    1
    88   152   155    1
    89   119   118    1
    90    96    94    1
    91     5     6    1
    92    89    88    1
    93   153   154    2
    94   159   160    1
    95    94    91    1
    96   172   171   ar
    97   172   170   ar
    98   118   117    1
    99   157   156    1
   100   155   156    1
   101   171   169   ar
   102   117   105   am
   103   170   168   ar
   104   160   161    2
   105   105   106    2
   106   105   104    1
   107    91    92    1
   108    91    90    1
   109    16    14   ar
   110    16    15   ar
   111   104   103    1
   112   104   107    1
   113    31    29    1
   114   169   167   ar
   115    92    93    2
   116    92    97   am
   117   100    99    2
   118   168   167   ar
   119    14    12   ar
   120   103    99   am
   121    15    13   ar
   122    97    98    1
   123    99    98    1
   124   167   166    1
   125   107   108    1
   126    30    29    1
   127    29    28    1
   128    98   101    1
   129    10     9    2
   130   113   115   ar
   131   113   110   ar
   132    12    13   ar
   133    12    11    1
   134    20    19    2
   135   115   116   ar
   136     9     8    1
   137   108   110   ar
   138   108   109   ar
   139    28    25    1
   140    41    40   ar
   141    41    39   ar
   142   110   112   ar
   143   166   163    1
   144    25    26    1
   145    25    24    1
   146   162   163    1
   147    27    26    2
   148    23    21    1
   149    40    38   ar
   150   101   102    1
   151   163   164    1
   152    39    37   ar
   153    11     8    1
   154    19    24   am
   155    19    18    1
   156   109   111   ar
   157     8     7    1
   158   116   114   ar
   159   112   114   ar
   160   112   111   ar
   161    38    37   ar
   162    37    36    1
   163    18    21    1
   164    18    17    1
   165    21    22    1
   166   164   165    2
   167    36    33    1
   168    32    33    1
   169    33    34    1
   170    35    34    2
