@<TRIPOS>MOLECULE
tmp/1w11A00.pdb
 173 170 0 0 0
SMALL
GASTEIGER

@<TRIPOS>ATOM
      1  N         22.5420    9.2730   36.3020 N.3    46  HIS46      -0.1241
      2  CA        22.9000   10.4240   35.4660 C.3    46  HIS46       0.1621
      3  C         21.9960   10.6180   34.2580 C.2    46  HIS46       0.2264
      4  O         21.9730   11.6910   33.6550 O.2    46  HIS46      -0.2867
      5  CB        24.3900   10.4110   35.0700 C.3    46  HIS46       0.0745
      6  CG        24.7030    9.6390   33.8260 C.ar   46  HIS46       0.0817
      7  ND1       25.3170    8.4060   33.8540 N.ar   46  HIS46      -0.2268
      8  CD2       24.5590    9.9570   32.5160 C.ar   46  HIS46       0.1154
      9  CE1       25.5470    8.0000   32.6180 C.ar   46  HIS46       0.1986
     10  NE2       25.0970    8.9230   31.7870 N.ar   46  HIS46      -0.2212
     11  N         32.2360   14.0790   39.0870 N.3    90  ASP90      -0.1225
     12  CA        33.4700   14.8410   39.1790 C.3    90  ASP90       0.1805
     13  C         33.9570   15.1570   37.7720 C.2    90  ASP90       0.2598
     14  O         33.1580   15.1750   36.8310 O.2    90  ASP90      -0.2718
     15  CB        34.5210   14.0580   39.9670 C.3    90  ASP90       0.1424
     16  CG        34.3480   14.2130   41.4640 C.2    90  ASP90       0.3668
     17  OD1       34.1210   13.2050   42.1600 O.co2  90  ASP90      -0.2456
     18  OD2       34.4340   15.3580   41.9480 O.co2  90  ASP90      -0.2456
     19  N         35.2510   15.4260   37.6280 N.am   91  THR91      -0.1939
     20  CA        35.8220   15.7380   36.3190 C.3    91  THR91       0.2028
     21  C         35.4670   14.6280   35.3240 C.2    91  THR91       0.2642
     22  O         34.9560   14.8970   34.2330 O.2    91  THR91      -0.2714
     23  CB        37.3560   15.9020   36.3990 C.3    91  THR91       0.1808
     24  OG1       37.6760   16.9250   37.3520 O.3    91  THR91      -0.2208
     25  CG2       37.9270   16.2920   35.0380 C.3    91  THR91       0.0379
     26  N         35.6860   13.3840   35.7380 N.am   92  LEU92      -0.1977
     27  CA        35.3860   12.2330   34.9020 C.3    92  LEU92       0.1596
     28  C         34.4160   11.2650   35.5670 C.2    92  LEU92       0.2287
     29  O         33.4130   10.8730   34.9800 O.2    92  LEU92      -0.2864
     30  CB        36.6680   11.4710   34.5610 C.3    92  LEU92       0.0297
     31  CG        37.7410   12.1690   33.7290 C.3    92  LEU92       0.0022
     32  CD1       38.8570   11.1900   33.4360 C.3    92  LEU92       0.0001
     33  CD2       37.1400   12.6820   32.4390 C.3    92  LEU92       0.0001
     34  N         31.6230    9.3440   37.8020 N.3    94  HIS94      -0.1241
     35  CA        30.2260    9.4970   38.1860 C.3    94  HIS94       0.1621
     36  C         30.0830    8.5170   39.3310 C.2    94  HIS94       0.2264
     37  O         30.2860    7.3140   39.1600 O.2    94  HIS94      -0.2867
     38  CB        29.2900    9.1240   37.0380 C.3    94  HIS94       0.0745
     39  CG        29.2620   10.1350   35.9380 C.ar   94  HIS94       0.0817
     40  ND1       28.1230   10.8330   35.5990 N.ar   94  HIS94      -0.2268
     41  CD2       30.2400   10.5890   35.1190 C.ar   94  HIS94       0.1154
     42  CE1       28.4030   11.6750   34.6210 C.ar   94  HIS94       0.1986
     43  NE2       29.6800   11.5460   34.3120 N.ar   94  HIS94      -0.2212
     44  N         32.3080    8.0430   17.8100 N.3   145  SER145     -0.1217
     45  CA        32.3600    9.2970   18.5720 C.3   145  SER145      0.1889
     46  C         31.7600   10.4770   17.8020 C.2   145  SER145      0.2288
     47  O         31.0280   11.2970   18.3580 O.2   145  SER145     -0.2866
     48  CB        33.8160    9.6490   18.9180 C.3   145  SER145      0.2089
     49  OG        34.4960    8.5700   19.5370 O.3   145  SER145     -0.2183
     50  N         33.7920   -0.9820   22.3820 N.3   192  ASP192     -0.1225
     51  CA        33.5060   -0.3870   23.6850 C.3   192  ASP192      0.1805
     52  C         32.0980    0.2280   23.7010 C.2   192  ASP192      0.2598
     53  O         31.4460    0.3270   22.6630 O.2   192  ASP192     -0.2718
     54  CB        34.5710    0.7000   23.9130 C.3   192  ASP192      0.1424
     55  CG        34.5630    1.2930   25.3070 C.2   192  ASP192      0.3668
     56  OD1       33.9900    0.7070   26.2490 O.co2 192  ASP192     -0.2456
     57  OD2       35.1700    2.3740   25.4570 O.co2 192  ASP192     -0.2456
     58  N         31.6030    0.5620   24.8900 N.am  193  SER193     -0.1938
     59  CA        30.3040    1.2240   25.0160 C.3   193  SER193      0.2055
     60  C         30.5990    2.7010   24.7360 C.2   193  SER193      0.2643
     61  O         31.7610    3.1080   24.7160 O.2   193  SER193     -0.2714
     62  CB        29.7260    1.0480   26.4230 C.3   193  SER193      0.2130
     63  OG        30.6880    1.3410   27.4240 O.3   193  SER193     -0.2179
     64  N         29.5610    3.5040   24.5390 N.am  194  CYS194     -0.1953
     65  CA        29.7570    4.9110   24.2250 C.3   194  CYS194      0.1843
     66  C         28.5300    5.7000   24.6880 C.2   194  CYS194      0.2625
     67  O         27.7050    5.1800   25.4530 O.2   194  CYS194     -0.2714
     68  CB        29.9440    5.0350   22.7090 C.3   194  CYS194      0.0997
     69  SG        30.7140    6.5640   22.0960 S.3   194  CYS194     -0.0797
     70  N         28.4260    6.9560   24.2560 N.am  195  GLN195     -0.1977
     71  CA        27.2690    7.7970   24.6090 C.3   195  GLN195      0.1601
     72  C         25.9930    7.1040   24.1240 C.2   195  GLN195      0.2287
     73  O         25.9510    6.6210   22.9960 O.2   195  GLN195     -0.2864
     74  CB        27.3440    9.1580   23.9160 C.3   195  GLN195      0.0394
     75  CG        28.4840   10.0570   24.3170 C.3   195  GLN195      0.0908
     76  CD        28.4390   11.3780   23.5610 C.2   195  GLN195      0.2608
     77  OE1       29.1050   11.5470   22.5370 O.2   195  GLN195     -0.2717
     78  NE2       27.6240   12.3110   24.0460 N.am  195  GLN195     -0.0878
     79  N         24.6300    4.3550   28.1980 N.3   198  SER198     -0.1217
     80  CA        24.4610    4.5530   29.6400 C.3   198  SER198      0.1889
     81  C         23.2210    3.8600   30.1980 C.2   198  SER198      0.2288
     82  O         22.1570    3.8580   29.5690 O.2   198  SER198     -0.2866
     83  CB        24.3730    6.0510   29.9630 C.3   198  SER198      0.2089
     84  OG        25.5760    6.7210   29.6340 O.3   198  SER198     -0.2183
     85  N         26.4840    0.5030   32.6390 N.3   216  VAL216     -0.1231
     86  CA        27.2650    1.4610   31.8520 C.3   216  VAL216      0.1692
     87  C         27.1580    2.8450   32.4840 C.2   216  VAL216      0.2593
     88  O         26.0780    3.4170   32.5670 O.2   216  VAL216     -0.2718
     89  CB        26.7870    1.5210   30.3760 C.3   216  VAL216      0.0266
     90  CG1       27.6700    2.4780   29.5780 C.3   216  VAL216      0.0020
     91  CG2       26.8040    0.1290   29.7500 C.3   216  VAL216      0.0020
     92  N         28.2930    3.3800   32.9270 N.am  217  SER217     -0.1938
     93  CA        28.3070    4.6760   33.5860 C.3   217  SER217      0.2055
     94  C         29.0980    5.7590   32.8610 C.2   217  SER217      0.2643
     95  O         28.5090    6.6880   32.3070 O.2   217  SER217     -0.2714
     96  CB        28.8140    4.5210   35.0280 C.3   217  SER217      0.2130
     97  OG        28.7410    5.7470   35.7300 O.3   217  SER217     -0.2179
     98  N         30.4250    5.6320   32.8480 N.am  218  TRP218     -0.1959
     99  CA        31.2660    6.6440   32.2090 C.3   218  TRP218      0.1771
    100  C         32.5350    6.1380   31.5250 C.2   218  TRP218      0.2620
    101  O         32.8330    4.9410   31.5200 O.2   218  TRP218     -0.2715
    102  CB        31.6260    7.7410   33.2220 C.3   218  TRP218      0.0590
    103  CG        32.3840    7.2610   34.4380 C.ar  218  TRP218      0.0006
    104  CD1       31.8520    6.7010   35.5650 C.ar  218  TRP218      0.0946
    105  CD2       33.7970    7.3630   34.6720 C.ar  218  TRP218      0.0152
    106  NE1       32.8420    6.4570   36.4880 N.ar  218  TRP218     -0.2442
    107  CE2       34.0460    6.8510   35.9660 C.ar  218  TRP218      0.0810
    108  CE3       34.8780    7.8350   33.9140 C.ar  218  TRP218      0.0012
    109  CZ2       35.3330    6.7980   36.5240 C.ar  218  TRP218      0.0191
    110  CZ3       36.1620    7.7810   34.4690 C.ar  218  TRP218      0.0001
    111  CH2       36.3740    7.2660   35.7620 C.ar  218  TRP218      0.0015
    112  N         33.2720    7.0790   30.9450 N.am  219  GLY219     -0.1940
    113  CA        34.5120    6.7610   30.2630 C.3   219  GLY219      0.2014
    114  C         35.0370    7.9350   29.4560 C.2   219  GLY219      0.2639
    115  O         34.2610    8.7850   29.0080 O.2   219  GLY219     -0.2714
    116  N         36.3590    8.0070   29.3020 N.am  220  ARG220     -0.1963
    117  CA        36.9820    9.0740   28.5270 C.3   220  ARG220      0.1729
    118  C         36.9180    8.6640   27.0640 C.2   220  ARG220      0.2617
    119  O         37.5490    7.6880   26.6480 O.2   220  ARG220     -0.2715
    120  CB        38.4370    9.3030   28.9650 C.3   220  ARG220      0.0348
    121  CG        39.1900   10.3110   28.1060 C.3   220  ARG220      0.0492
    122  CD        38.5490   11.6860   28.1610 C.3   220  ARG220      0.2205
    123  NE        38.7720   12.4520   26.9340 N.pl3 220  ARG220     -0.0865
    124  CZ        39.8790   13.1370   26.6540 C.cat 220  ARG220      0.5346
    125  NH1       40.8900   13.1660   27.5150 N.pl3 220  ARG220      0.1354
    126  NH2       39.9760   13.7980   25.5050 N.pl3 220  ARG220      0.1354
    127  N         36.1310    9.4080   26.2960 N.am  221  GLY221     -0.1940
    128  CA        35.9600    9.1000   24.8940 C.3   221  GLY221      0.2014
    129  C         35.2690    7.7590   24.7560 C.2   221  GLY221      0.2639
    130  O         34.5650    7.3100   25.6650 O.2   221  GLY221     -0.2714
    131  N         35.4890    7.1090   23.6230 N.am  222  CYS222     -0.1953
    132  CA        34.9110    5.8040   23.3460 C.3   222  CYS222      0.1843
    133  C         35.9380    4.9740   22.5820 C.2   222  CYS222      0.2625
    134  O         36.3950    5.3780   21.5150 O.2   222  CYS222     -0.2714
    135  CB        33.6430    5.9540   22.5100 C.3   222  CYS222      0.0997
    136  SG        32.2890    6.8370   23.3440 S.3   222  CYS222     -0.0797
    137  N         36.3010    3.8230   23.1400 N.am  223  ALA223     -0.1977
    138  CA        37.2840    2.9330   22.5270 C.3   223  ALA223      0.1597
    139  C         38.6590    3.5950   22.4110 C.2   223  ALA223      0.2287
    140  O         39.4150    3.3270   21.4790 O.2   223  ALA223     -0.2864
    141  CB        36.7950    2.4500   21.1560 C.3   223  ALA223      0.0319
    142  N         41.7670    3.8990   28.0720 N.3   227  LYS227     -0.1245
    143  CA        40.6120    4.5630   28.6640 C.3   227  LYS227      0.1561
    144  C         39.4230    3.5970   28.6240 C.2   227  LYS227      0.2260
    145  O         38.5600    3.6890   27.7520 O.2   227  LYS227     -0.2867
    146  CB        40.2960    5.8540   27.8950 C.3   227  LYS227      0.0271
    147  CG        41.4740    6.8160   27.7950 C.3   227  LYS227      0.0035
    148  CD        41.9380    7.2590   29.1770 C.3   227  LYS227      0.0206
    149  CE        43.3060    7.9240   29.1210 C.3   227  LYS227      0.1093
    150  NZ        43.7310    8.4340   30.4540 N.3   227  LYS227     -0.1314
    151  N         35.9030    1.4580   29.7190 N.3   229  GLY229     -0.1210
    152  CA        34.5670    1.8990   30.0580 C.3   229  GLY229      0.1956
    153  C         34.4840    1.6720   31.5520 C.2   229  GLY229      0.2612
    154  O         35.1280    0.7540   32.0680 O.2   229  GLY229     -0.2717
    155  N         33.7820    2.5390   32.2710 N.am  230  VAL230     -0.1965
    156  CA        33.6480    2.3580   33.7160 C.3   230  VAL230      0.1727
    157  C         32.1900    2.0360   34.0300 C.2   230  VAL230      0.2616
    158  O         31.2720    2.7050   33.5410 O.2   230  VAL230     -0.2715
    159  CB        34.1360    3.5990   34.4990 C.3   230  VAL230      0.0290
    160  CG1       34.0160    3.3570   35.9980 C.3   230  VAL230      0.0023
    161  CG2       35.5990    3.9080   34.1300 C.3   230  VAL230      0.0023
    162  N         31.9910    0.9890   34.8310 N.am  231  TYR231     -0.1974
    163  CA        30.6650    0.5180   35.1880 C.3   231  TYR231      0.1639
    164  C         30.4170    0.5180   36.6760 C.2   231  TYR231      0.2290
    165  O         31.3170    0.2390   37.4700 O.2   231  TYR231     -0.2864
    166  CB        30.4610   -0.9100   34.6670 C.3   231  TYR231      0.0560
    167  CG        30.7330   -1.0520   33.1940 C.ar  231  TYR231     -0.0198
    168  CD1       32.0430   -1.0450   32.7000 C.ar  231  TYR231     -0.0009
    169  CD2       29.6780   -1.1150   32.2810 C.ar  231  TYR231     -0.0009
    170  CE1       32.2920   -1.0850   31.3300 C.ar  231  TYR231      0.0417
    171  CE2       29.9120   -1.1560   30.9180 C.ar  231  TYR231      0.0417
    172  CZ        31.2140   -1.1370   30.4460 C.ar  231  TYR231      0.1957
    173  OH        31.4280   -1.1460   29.0950 O.3   231  TYR231     -0.2866
@<TRIPOS>BOND
     1    46    47    2
     2    46    45    1
     3    44    45    1
     4    45    48    1
     5    48    49    1
     6   141   138    1
     7   140   139    2
     8   134   133    2
     9    69    68    1
    10    69   136    1
    11    50    51    1
    12   139   138    1
    13   135   136    1
    14   135   132    1
    15   138   137    1
    16    77    76    2
    17   133   137   am
    18   133   132    1
    19    53    52    2
    20    68    65    1
    21    73    72    2
    22   132   131    1
    23    76    78   am
    24    76    75    1
    25   131   129   am
    26    51    52    1
    27    51    54    1
    28    52    58   am
    29    54    55    1
    30    74    75    1
    31    74    71    1
    32    72    71    1
    33    65    64    1
    34    65    66    1
    35    70    71    1
    36    70    66   am
    37    64    60   am
    38    66    67    2
    39    61    60    2
    40    60    59    1
    41   129   128    1
    42   129   130    2
    43    58    59    1
    44   128   127    1
    45    59    62    1
    46    55    57   ar
    47    55    56   ar
    48   126   124    1
    49   127   118   am
    50    62    63    1
    51   119   118    2
    52   124   123    2
    53   124   125    1
    54   123   122    1
    55   118   117    1
    56   145   144    2
    57   147   146    1
    58   147   148    1
    59   146   143    1
    60   142   143    1
    61   121   122    1
    62   121   120    1
    63    79    80    1
    64   117   120    1
    65   117   116    1
    66   144   143    1
    67   115   114    2
    68   173   172    1
    69   149   148    1
    70   149   150    1
    71   116   114   am
    72   114   113    1
    73    82    81    2
    74    90    89    1
    75    84    83    1
    76    80    83    1
    77    80    81    1
    78   151   152    1
    79    91    89    1
    80   152   153    1
    81   113   112    1
    82    89    86    1
    83   172   171   ar
    84   172   170   ar
    85   171   169   ar
    86   112   100   am
    87   170   168   ar
    88   101   100    2
    89   100    99    1
    90   153   154    2
    91   153   155   am
    92    10     8   ar
    93    10     9   ar
    94    86    87    1
    95    86    85    1
    96    99    98    1
    97    99   102    1
    98   155   156    1
    99   169   167   ar
   100    95    94    2
   101    33    31    1
   102    87    88    2
   103    87    92   am
   104     8     6   ar
   105     9     7   ar
   106   168   167   ar
   107    98    94   am
   108    94    93    1
   109    92    93    1
   110   167   166    1
   111   102   103    1
   112    32    31    1
   113   158   157    2
   114    93    96    1
   115     4     3    2
   116   156   157    1
   117   156   159    1
   118    31    30    1
   119     6     7   ar
   120     6     5    1
   121   108   110   ar
   122   108   105   ar
   123   157   162   am
   124   161   159    1
   125    22    21    2
   126     3     2    1
   127    43    42   ar
   128    43    41   ar
   129   103   105   ar
   130   103   104   ar
   131   110   111   ar
   132   159   160    1
   133    30    27    1
   134    42    40   ar
   135   166   163    1
   136   105   107   ar
   137   162   163    1
   138    27    28    1
   139    27    26    1
   140    29    28    2
   141    96    97    1
   142    25    23    1
   143     5     2    1
   144    41    39   ar
   145   163   164    1
   146    21    26   am
   147    21    20    1
   148     2     1    1
   149   104   106   ar
   150    40    39   ar
   151   111   109   ar
   152    39    38    1
   153   107   106   ar
   154   107   109   ar
   155    20    23    1
   156    20    19    1
   157    23    24    1
   158   164   165    2
   159    14    13    2
   160    38    35    1
   161    19    13   am
   162    13    12    1
   163    34    35    1
   164    35    36    1
   165    11    12    1
   166    37    36    2
   167    12    15    1
   168    15    16    1
   169    16    18   ar
   170    16    17   ar
