@<TRIPOS>MOLECULE
tmp/1w12A00.pdb
 203 202 0 0 0
SMALL
GASTEIGER

@<TRIPOS>ATOM
      1  N         17.6640   29.2920   49.1950 N.3    31  CYS31      -0.1235
      2  CA        16.9190   28.5610   50.2080 C.3    31  CYS31       0.1677
      3  C         15.4460   28.8960   50.2180 C.2    31  CYS31       0.2270
      4  O         14.9730   29.7350   49.4550 O.2    31  CYS31      -0.2867
      5  CB        17.4490   28.9380   51.5920 C.3    31  CYS31       0.0956
      6  SG        19.0260   28.2060   52.1060 S.3    31  CYS31      -0.0801
      7  N         22.3640   29.3860   58.1530 N.3    46  HIS46      -0.1241
      8  CA        23.3700   28.8370   57.2490 C.3    46  HIS46       0.1621
      9  C         23.1390   29.1800   55.7810 C.2    46  HIS46       0.2264
     10  O         24.0230   28.9940   54.9420 O.2    46  HIS46      -0.2867
     11  CB        23.5680   27.3280   57.4750 C.3    46  HIS46       0.0745
     12  CG        22.6750   26.4410   56.6580 C.ar   46  HIS46       0.0817
     13  ND1       21.5600   25.8240   57.1830 N.ar   46  HIS46      -0.2268
     14  CD2       22.7910   25.9840   55.3890 C.ar   46  HIS46       0.1154
     15  CE1       21.0310   25.0230   56.2770 C.ar   46  HIS46       0.1986
     16  NE2       21.7590   25.1020   55.1780 N.ar   46  HIS46      -0.2212
     17  N         28.8840   26.0460   63.4150 N.3    89  ALA89      -0.1231
     18  CA        28.7860   24.8390   62.6120 C.3    89  ALA89       0.1694
     19  C         29.9720   23.9200   62.8550 C.2    89  ALA89       0.2592
     20  O         31.0930   24.3600   63.1240 O.2    89  ALA89      -0.2718
     21  CB        28.6660   25.1860   61.1350 C.3    89  ALA89       0.0304
     22  N         29.6880   22.6330   62.7550 N.am   90  ASP90      -0.1960
     23  CA        30.6540   21.5740   62.9530 C.3    90  ASP90       0.1840
     24  C         30.6910   20.8020   61.6420 C.2    90  ASP90       0.2623
     25  O         30.1700   21.2440   60.6140 O.2    90  ASP90      -0.2715
     26  CB        30.1150   20.6330   64.0400 C.3    90  ASP90       0.1450
     27  CG        31.1070   20.3700   65.1300 C.2    90  ASP90       0.3671
     28  OD1       30.9660   19.3340   65.8170 O.co2  90  ASP90      -0.2456
     29  OD2       32.0240   21.1970   65.3100 O.co2  90  ASP90      -0.2456
     30  N         31.2990   19.6300   61.7000 N.am   91  THR91      -0.1937
     31  CA        31.3580   18.7440   60.5590 C.3    91  THR91       0.2028
     32  C         30.1970   17.7590   60.8100 C.2    91  THR91       0.2642
     33  O         29.7930   16.9940   59.9330 O.2    91  THR91      -0.2714
     34  CB        32.7250   18.0440   60.5150 C.3    91  THR91       0.1808
     35  OG1       33.0730   17.7660   59.1610 O.3    91  THR91      -0.2208
     36  CG2       32.7240   16.7680   61.3270 C.3    91  THR91       0.0379
     37  N         29.6240   17.8650   62.0090 N.am   92  LEU92      -0.1963
     38  CA        28.5110   17.0400   62.4620 C.3    92  LEU92       0.1728
     39  C         27.1420   17.7270   62.4340 C.2    92  LEU92       0.2616
     40  O         26.1340   17.0720   62.1580 O.2    92  LEU92      -0.2715
     41  CB        28.7740   16.5390   63.8850 C.3    92  LEU92       0.0311
     42  CG        29.9960   15.6460   64.1020 C.3    92  LEU92       0.0022
     43  CD1       30.1130   15.2660   65.5710 C.3    92  LEU92       0.0001
     44  CD2       29.8690   14.4090   63.2330 C.3    92  LEU92       0.0001
     45  N         27.0930   19.0290   62.7140 N.am   93  ALA93      -0.1963
     46  CA        25.8110   19.7350   62.7410 C.3    93  ALA93       0.1728
     47  C         25.8740   21.2580   62.7540 C.2    93  ALA93       0.2616
     48  O         26.9220   21.8450   63.0160 O.2    93  ALA93      -0.2715
     49  CB        25.0000   19.2640   63.9550 C.3    93  ALA93       0.0334
     50  N         24.7270   21.8730   62.4520 N.am   94  HIS94      -0.1973
     51  CA        24.5330   23.3270   62.4820 C.3    94  HIS94       0.1656
     52  C         23.8840   23.5710   63.8500 C.2    94  HIS94       0.2291
     53  O         23.0550   22.7660   64.2780 O.2    94  HIS94      -0.2864
     54  CB        23.4890   23.7770   61.4480 C.3    94  HIS94       0.0771
     55  CG        23.9510   23.7360   60.0260 C.ar   94  HIS94       0.0820
     56  ND1       25.0490   24.4360   59.5770 N.ar   94  HIS94      -0.2267
     57  CD2       23.4330   23.1120   58.9420 C.ar   94  HIS94       0.1154
     58  CE1       25.1890   24.2440   58.2780 C.ar   94  HIS94       0.1986
     59  NE2       24.2210   23.4440   57.8670 N.ar   94  HIS94      -0.2212
     60  N         16.6700   19.6120   45.6230 N.3   142  LYS142     -0.1245
     61  CA        17.0120   18.4580   44.8030 C.3   142  LYS142      0.1561
     62  C         16.0790   17.2630   44.9440 C.2   142  LYS142      0.2260
     63  O         15.5790   16.9680   46.0340 O.2   142  LYS142     -0.2867
     64  CB        18.4330   17.9850   45.1180 C.3   142  LYS142      0.0271
     65  CG        19.5340   18.9520   44.7610 C.3   142  LYS142      0.0035
     66  CD        20.8630   18.2600   44.9600 C.3   142  LYS142      0.0206
     67  CE        22.0280   19.1460   44.5740 C.3   142  LYS142      0.1093
     68  NZ        23.2990   18.3840   44.7160 N.3   142  LYS142     -0.1314
     69  N         12.3440   12.7270   51.6670 N.3   192  ASP192     -0.1225
     70  CA        13.0700   13.5480   52.6300 C.3   192  ASP192      0.1805
     71  C         13.3540   14.9010   51.9760 C.2   192  ASP192      0.2598
     72  O         13.0510   15.1080   50.7960 O.2   192  ASP192     -0.2718
     73  CB        14.4010   12.8260   52.9400 C.3   192  ASP192      0.1424
     74  CG        15.1710   13.4110   54.1270 C.2   192  ASP192      0.3668
     75  OD1       14.6560   14.2750   54.8710 O.co2 192  ASP192     -0.2456
     76  OD2       16.3250   12.9730   54.3200 O.co2 192  ASP192     -0.2456
     77  N         13.8710   15.8390   52.7650 N.am  193  SER193     -0.1938
     78  CA        14.2630   17.1440   52.2490 C.3   193  SER193      0.2055
     79  C         15.7160   16.9560   51.8190 C.2   193  SER193      0.2643
     80  O         16.3480   15.9640   52.1770 O.2   193  SER193     -0.2714
     81  CB        14.1500   18.2180   53.3300 C.3   193  SER193      0.2130
     82  OG        14.7930   17.8080   54.5220 O.3   193  SER193     -0.2179
     83  N         16.2620   17.8970   51.0650 N.am  194  CYS194     -0.1953
     84  CA        17.6270   17.7490   50.5840 C.3   194  CYS194      0.1843
     85  C         18.2550   19.1370   50.4040 C.2   194  CYS194      0.2625
     86  O         17.7200   20.1330   50.9140 O.2   194  CYS194     -0.2714
     87  CB        17.5900   16.9690   49.2490 C.3   194  CYS194      0.0997
     88  SG        19.1630   16.2230   48.6850 S.3   194  CYS194     -0.0797
     89  N         19.4220   19.1850   49.7550 N.am  195  GLN195     -0.1963
     90  CA        20.0970   20.4500   49.4790 C.3   195  GLN195      0.1733
     91  C         19.1170   21.2450   48.6310 C.2   195  GLN195      0.2616
     92  O         18.4800   20.6920   47.7300 O.2   195  GLN195     -0.2715
     93  CB        21.3810   20.2150   48.6780 C.3   195  GLN195      0.0408
     94  CG        22.6170   19.8490   49.5050 C.3   195  GLN195      0.0908
     95  CD        22.4240   18.5910   50.3190 C.2   195  GLN195      0.2608
     96  OE1       22.1390   17.5200   49.7770 O.2   195  GLN195     -0.2717
     97  NE2       22.5830   18.7110   51.6330 N.am  195  GLN195     -0.0878
     98  N         18.9790   22.5310   48.9270 N.am  196  GLY196     -0.1955
     99  CA        18.0390   23.3580   48.1860 C.3   196  GLY196      0.1869
    100  C         16.7490   23.5600   48.9630 C.2   196  GLY196      0.2309
    101  O         15.9700   24.4640   48.6720 O.2   196  GLY196     -0.2863
    102  N         16.8190   23.8780   52.3820 N.3   198  SER198     -0.1217
    103  CA        17.1510   24.5500   53.6360 C.3   198  SER198      0.1889
    104  C         16.3740   25.8310   53.8320 C.2   198  SER198      0.2288
    105  O         16.0910   26.5360   52.8730 O.2   198  SER198     -0.2866
    106  CB        18.6420   24.8190   53.7290 C.3   198  SER198      0.2089
    107  OG        19.3320   23.6020   53.9870 O.3   198  SER198     -0.2183
    108  N         14.0450   23.5120   57.8290 N.3   216  VAL216     -0.1231
    109  CA        14.9780   22.5390   57.2470 C.3   216  VAL216      0.1692
    110  C         16.4180   22.9980   57.5130 C.2   216  VAL216      0.2593
    111  O         16.8260   24.0900   57.0850 O.2   216  VAL216     -0.2718
    112  CB        14.7800   22.3660   55.7210 C.3   216  VAL216      0.0266
    113  CG1       15.7510   21.3210   55.1800 C.3   216  VAL216      0.0020
    114  CG2       13.3630   21.9400   55.4110 C.3   216  VAL216      0.0020
    115  N         17.1860   22.1560   58.2030 N.am  217  SER217     -0.1938
    116  CA        18.5560   22.5000   58.5500 C.3   217  SER217      0.2055
    117  C         19.6700   21.5900   57.9870 C.2   217  SER217      0.2643
    118  O         20.5160   22.0480   57.2200 O.2   217  SER217     -0.2714
    119  CB        18.6640   22.6010   60.0680 C.3   217  SER217      0.2130
    120  OG        19.8920   23.1760   60.4500 O.3   217  SER217     -0.2179
    121  N         19.6780   20.3130   58.3620 N.am  218  TRP218     -0.1959
    122  CA        20.7240   19.3990   57.8990 C.3   218  TRP218      0.1771
    123  C         20.3380   17.9290   57.9430 C.2   218  TRP218      0.2620
    124  O         19.2470   17.5720   58.3740 O.2   218  TRP218     -0.2715
    125  CB        21.9970   19.5760   58.7380 C.3   218  TRP218      0.0590
    126  CG        21.8690   19.1780   60.1950 C.ar  218  TRP218      0.0006
    127  CD1       21.4020   19.9500   61.2200 C.ar  218  TRP218      0.0946
    128  CD2       22.3040   17.9460   60.7920 C.ar  218  TRP218      0.0152
    129  NE1       21.5320   19.2830   62.4190 N.ar  218  TRP218     -0.2442
    130  CE2       22.0830   18.0510   62.1830 C.ar  218  TRP218      0.0810
    131  CE3       22.8660   16.7640   60.2850 C.ar  218  TRP218      0.0012
    132  CZ2       22.4040   17.0210   63.0770 C.ar  218  TRP218      0.0191
    133  CZ3       23.1870   15.7370   61.1740 C.ar  218  TRP218      0.0001
    134  CH2       22.9530   15.8760   62.5560 C.ar  218  TRP218      0.0015
    135  N         21.2720   17.0840   57.5220 N.am  219  GLY219     -0.1940
    136  CA        21.0590   15.6480   57.5330 C.3   219  GLY219      0.2014
    137  C         22.2040   14.9750   56.8100 C.2   219  GLY219      0.2639
    138  O         22.8890   15.6190   56.0090 O.2   219  GLY219     -0.2714
    139  N         22.4600   13.7070   57.1060 N.am  220  ARG220     -0.1963
    140  CA        23.5350   13.0090   56.4080 C.3   220  ARG220      0.1729
    141  C         22.9160   12.5140   55.1020 C.2   220  ARG220      0.2617
    142  O         22.0570   11.6320   55.1130 O.2   220  ARG220     -0.2715
    143  CB        24.0520   11.8320   57.2350 C.3   220  ARG220      0.0348
    144  CG        25.2800   11.1500   56.6480 C.3   220  ARG220      0.0492
    145  CD        26.5590   11.6950   57.2590 C.3   220  ARG220      0.2205
    146  NE        26.7080   11.2560   58.6490 N.pl3 220  ARG220     -0.0865
    147  CZ        26.6310   12.0530   59.7100 C.cat 220  ARG220      0.5346
    148  NH1       26.4020   13.3510   59.5610 N.pl3 220  ARG220      0.1354
    149  NH2       26.8020   11.5500   60.9240 N.pl3 220  ARG220      0.1354
    150  N         23.3210   13.1070   53.9840 N.am  221  GLY221     -0.1940
    151  CA        22.7600   12.7100   52.7000 C.3   221  GLY221      0.2014
    152  C         21.3160   13.1820   52.5400 C.2   221  GLY221      0.2639
    153  O         20.9190   14.2060   53.0990 O.2   221  GLY221     -0.2714
    154  N         20.5270   12.4400   51.7730 N.am  222  CYS222     -0.1953
    155  CA        19.1210   12.7770   51.5480 C.3   222  CYS222      0.1843
    156  C         18.3740   11.4570   51.3860 C.2   222  CYS222      0.2625
    157  O         18.6260   10.7130   50.4410 O.2   222  CYS222     -0.2714
    158  CB        18.9670   13.6360   50.2830 C.3   222  CYS222      0.0997
    159  SG        19.8410   15.2330   50.3220 S.3   222  CYS222     -0.0797
    160  N         17.4790   11.1610   52.3240 N.am  223  ALA223     -0.1977
    161  CA        16.7050    9.9120   52.3120 C.3   223  ALA223      0.1597
    162  C         17.5940    8.6900   52.5360 C.2   223  ALA223      0.2287
    163  O         17.3570    7.6210   51.9720 O.2   223  ALA223     -0.2864
    164  CB        15.9060    9.7640   51.0060 C.3   223  ALA223      0.0319
    165  N         19.2270    7.8100   58.7330 N.3   227  LYS227     -0.1231
    166  CA        19.7570    9.1630   58.7990 C.3   227  LYS227      0.1678
    167  C         18.5930   10.1230   58.5350 C.2   227  LYS227      0.2434
    168  O         18.3620   10.5230   57.4040 O.2   227  LYS227     -0.2733
    169  CB        20.8630    9.3660   57.7570 C.3   227  LYS227      0.0284
    170  CG        21.9930    8.3500   57.8340 C.3   227  LYS227      0.0035
    171  CD        22.7430    8.4280   59.1610 C.3   227  LYS227      0.0206
    172  CE        23.8680    7.4070   59.2130 C.3   227  LYS227      0.1093
    173  NZ        24.5270    7.4280   60.5460 N.3   227  LYS227     -0.1314
    174  N         17.8260   10.4730   59.5810 N.am  228  PRO228     -0.2718
    175  CA        16.6740   11.3840   59.4860 C.3   228  PRO228      0.1535
    176  C         17.0820   12.8300   59.1730 C.2   228  PRO228      0.2599
    177  O         18.2320   13.2250   59.3750 O.2   228  PRO228     -0.2715
    178  CB        16.0710   11.3340   60.8980 C.3   228  PRO228      0.0310
    179  CG        16.6790   10.1310   61.5450 C.3   228  PRO228      0.0237
    180  CD        18.0480   10.0540   60.9760 C.3   228  PRO228      0.0939
    181  N         16.1340   13.6200   58.6780 N.am  229  GLY229     -0.1941
    182  CA        16.4210   15.0160   58.4250 C.3   229  GLY229      0.2014
    183  C         16.3170   15.7240   59.7710 C.2   229  GLY229      0.2639
    184  O         15.5220   15.3240   60.6340 O.2   229  GLY229     -0.2714
    185  N         17.1200   16.7650   59.9630 N.am  230  VAL230     -0.1963
    186  CA        17.1250   17.5160   61.2110 C.3   230  VAL230      0.1727
    187  C         16.6250   18.9240   60.9600 C.2   230  VAL230      0.2616
    188  O         17.0440   19.5920   60.0110 O.2   230  VAL230     -0.2715
    189  CB        18.5340   17.5490   61.8490 C.3   230  VAL230      0.0290
    190  CG1       18.4890   18.2380   63.2080 C.3   230  VAL230      0.0023
    191  CG2       19.0780   16.1190   61.9940 C.3   230  VAL230      0.0023
    192  N         15.7140   19.3600   61.8230 N.am  231  TYR231     -0.1974
    193  CA        15.0890   20.6700   61.7160 C.3   231  TYR231      0.1639
    194  C         15.3130   21.5090   62.9640 C.2   231  TYR231      0.2290
    195  O         15.4930   20.9830   64.0630 O.2   231  TYR231     -0.2864
    196  CB        13.5760   20.4950   61.4940 C.3   231  TYR231      0.0560
    197  CG        13.2430   19.6120   60.3140 C.ar  231  TYR231     -0.0198
    198  CD1       13.4520   18.2350   60.3680 C.ar  231  TYR231     -0.0009
    199  CD2       12.7950   20.1620   59.1150 C.ar  231  TYR231     -0.0009
    200  CE1       13.2320   17.4350   59.2560 C.ar  231  TYR231      0.0417
    201  CE2       12.5740   19.3680   58.0000 C.ar  231  TYR231      0.0417
    202  CZ        12.7970   18.0130   58.0730 C.ar  231  TYR231      0.1957
    203  OH        12.6210   17.2380   56.9540 O.3   231  TYR231     -0.2866
@<TRIPOS>BOND
     1    67    68    1
     2    67    66    1
     3    65    66    1
     4    65    64    1
     5    61    62    1
     6    61    64    1
     7    61    60    1
     8    62    63    2
     9    92    91    2
    10    99    98    1
    11    99   100    1
    12    91    98   am
    13    91    90    1
    14   101   100    2
    15    93    90    1
    16    93    94    1
    17    88    87    1
    18    88   159    1
    19     1     2    1
    20    87    84    1
    21     4     3    2
    22    90    89    1
    23    94    95    1
    24    89    85   am
    25    96    95    2
    26     2     3    1
    27     2     5    1
    28   158   159    1
    29   158   155    1
    30    95    97   am
    31    85    84    1
    32    85    86    2
    33   157   156    2
    34    84    83    1
    35    72    71    2
    36   164   161    1
    37    83    79   am
    38   156   155    1
    39   156   160   am
    40   155   154    1
    41     5     6    1
    42    69    70    1
    43   154   152   am
    44    79    80    2
    45    79    78    1
    46   163   162    2
    47    71    70    1
    48    71    77   am
    49    78    77    1
    50    78    81    1
    51   161   160    1
    52   161   162    1
    53   102   103    1
    54   152   151    1
    55   152   153    2
    56    70    73    1
    57   151   150    1
    58   105   104    2
    59    73    74    1
    60    81    82    1
    61   103   106    1
    62   103   104    1
    63   106   107    1
    64   150   141   am
    65    74    76   ar
    66    74    75   ar
    67    10     9    2
    68   141   142    2
    69   141   140    1
    70    16    14   ar
    71    16    15   ar
    72   113   112    1
    73    14    12   ar
    74   114   112    1
    75   112   109    1
    76     9     8    1
    77   138   137    2
    78    15    13   ar
    79   140   139    1
    80   140   143    1
    81   144   143    1
    82   144   145    1
    83    12    13   ar
    84    12    11    1
    85   137   139   am
    86   137   136    1
    87   203   202    1
    88   111   110    2
    89   118   117    2
    90   109   110    1
    91   109   108    1
    92     8    11    1
    93     8     7    1
    94   145   146    1
    95   168   167    2
    96   110   115   am
    97   135   136    1
    98   135   123   am
    99   169   170    1
   100   169   166    1
   101   170   171    1
   102    59    58   ar
   103    59    57   ar
   104   122   123    1
   105   122   121    1
   106   122   125    1
   107   123   124    2
   108   117   121   am
   109   117   116    1
   110   201   202   ar
   111   201   199   ar
   112   202   200   ar
   113   115   116    1
   114    58    56   ar
   115   182   181    1
   116   182   183    1
   117   167   166    1
   118   167   174   am
   119   116   119    1
   120   146   147    2
   121   181   176   am
   122   165   166    1
   123   125   126    1
   124    57    55   ar
   125   199   197   ar
   126    35    34    1
   127   171   172    1
   128   176   177    2
   129   176   175    1
   130   172   173    1
   131   200   198   ar
   132   175   174    1
   133   175   178    1
   134   148   147    1
   135    56    55   ar
   136   174   180    1
   137   147   149    1
   138   183   185   am
   139   183   184    2
   140    33    32    2
   141   185   186    1
   142   188   187    2
   143    55    54    1
   144   119   120    1
   145   126   128   ar
   146   126   127   ar
   147   131   128   ar
   148   131   133   ar
   149   197   198   ar
   150   197   196    1
   151    34    31    1
   152    34    36    1
   153    31    32    1
   154    31    30    1
   155    25    24    2
   156   128   130   ar
   157    32    37   am
   158   178   179    1
   159   187   186    1
   160   187   192   am
   161   180   179    1
   162    21    18    1
   163   133   134   ar
   164   186   189    1
   165   127   129   ar
   166    54    51    1
   167   196   193    1
   168    24    30   am
   169    24    23    1
   170   193   192    1
   171   193   194    1
   172   189   191    1
   173   189   190    1
   174    37    38    1
   175    40    39    2
   176   130   129   ar
   177   130   132   ar
   178    39    38    1
   179    39    45   am
   180    50    51    1
   181    50    47   am
   182    38    41    1
   183    51    52    1
   184   134   132   ar
   185    18    19    1
   186    18    17    1
   187    45    46    1
   188    46    47    1
   189    46    49    1
   190    47    48    2
   191    22    19   am
   192    22    23    1
   193    19    20    2
   194    23    26    1
   195   194   195    2
   196    44    42    1
   197    52    53    2
   198    41    42    1
   199    26    27    1
   200    42    43    1
   201    27    29   ar
   202    27    28   ar
