@<TRIPOS>MOLECULE
tmp/1w13A00.pdb
 176 173 0 0 0
SMALL
GASTEIGER

@<TRIPOS>ATOM
      1  N         22.3720    9.3550   36.7650 N.3    46  HIS46      -0.1241
      2  CA        22.7180   10.4940   35.9130 C.3    46  HIS46       0.1621
      3  C         21.7510   10.6840   34.7490 C.2    46  HIS46       0.2264
      4  O         21.6490   11.7730   34.1930 O.2    46  HIS46      -0.2867
      5  CB        24.1880   10.4340   35.4440 C.3    46  HIS46       0.0745
      6  CG        24.4190    9.6310   34.1980 C.ar   46  HIS46       0.0817
      7  ND1       25.0870    8.4270   34.2050 N.ar   46  HIS46      -0.2268
      8  CD2       24.1140    9.8850   32.9020 C.ar   46  HIS46       0.1154
      9  CE1       25.1880    7.9710   32.9700 C.ar   46  HIS46       0.1986
     10  NE2       24.6060    8.8370   32.1600 N.ar   46  HIS46      -0.2212
     11  N         32.0180   14.2290   39.4640 N.3    90  ASP90      -0.1225
     12  CA        33.2490   15.0010   39.5550 C.3    90  ASP90       0.1805
     13  C         33.7340   15.3460   38.1540 C.2    90  ASP90       0.2598
     14  O         32.9290   15.4790   37.2300 O.2    90  ASP90      -0.2718
     15  CB        34.3230   14.2190   40.3100 C.3    90  ASP90       0.1424
     16  CG        34.2320   14.4050   41.8120 C.2    90  ASP90       0.3668
     17  OD1       33.6650   13.5290   42.4910 O.co2  90  ASP90      -0.2456
     18  OD2       34.7390   15.4290   42.3140 O.co2  90  ASP90      -0.2456
     19  N         35.0470   15.5000   38.0070 N.am   91  THR91      -0.1939
     20  CA        35.6620   15.8180   36.7210 C.3    91  THR91       0.2028
     21  C         35.2660   14.7350   35.7120 C.2    91  THR91       0.2642
     22  O         34.7240   15.0380   34.6480 O.2    91  THR91      -0.2714
     23  CB        37.2110   15.8950   36.8620 C.3    91  THR91       0.1808
     24  OG1       37.5540   16.9490   37.7730 O.3    91  THR91      -0.2208
     25  CG2       37.8820   16.1590   35.5140 C.3    91  THR91       0.0379
     26  N         35.4780   13.4730   36.0830 N.am   92  LEU92      -0.1977
     27  CA        35.1320   12.3510   35.2170 C.3    92  LEU92       0.1596
     28  C         34.1780   11.3690   35.8930 C.2    92  LEU92       0.2287
     29  O         33.1710   10.9660   35.3150 O.2    92  LEU92      -0.2864
     30  CB        36.3940   11.5950   34.7840 C.3    92  LEU92       0.0297
     31  CG        37.3880   12.2820   33.8440 C.3    92  LEU92       0.0022
     32  CD1       38.6170   11.3950   33.6730 C.3    92  LEU92       0.0001
     33  CD2       36.7290   12.5630   32.5000 C.3    92  LEU92       0.0001
     34  N         31.4110    9.4830   38.1630 N.3    94  HIS94      -0.1241
     35  CA        30.0220    9.6390   38.5610 C.3    94  HIS94       0.1621
     36  C         29.8620    8.6320   39.6890 C.2    94  HIS94       0.2264
     37  O         30.0550    7.4270   39.4940 O.2    94  HIS94      -0.2867
     38  CB        29.0760    9.3320   37.3990 C.3    94  HIS94       0.0745
     39  CG        29.0490   10.4050   36.3550 C.ar   94  HIS94       0.0817
     40  ND1       27.9350   11.1800   36.1110 N.ar   94  HIS94      -0.2268
     41  CD2       30.0130   10.8600   35.5210 C.ar   94  HIS94       0.1154
     42  CE1       28.2160   12.0660   35.1740 C.ar   94  HIS94       0.1986
     43  NE2       29.4710   11.8930   34.7990 N.ar   94  HIS94      -0.2212
     44  N         25.9410    5.5130   20.7310 N.3   142  LYS142     -0.1245
     45  CA        26.7370    5.8480   19.5540 C.3   142  LYS142      0.1561
     46  C         27.6940    4.7610   19.0810 C.2   142  LYS142      0.2260
     47  O         28.2890    4.0280   19.8840 O.2   142  LYS142     -0.2867
     48  CB        27.5130    7.1440   19.7930 C.3   142  LYS142      0.0271
     49  CG        26.6220    8.3740   19.8900 C.3   142  LYS142      0.0035
     50  CD        27.4140    9.6190   20.2300 C.3   142  LYS142      0.0206
     51  CE        26.4950   10.8290   20.2770 C.3   142  LYS142      0.1093
     52  NZ        27.2090   12.0440   20.7350 N.3   142  LYS142     -0.1314
     53  N         32.3740    8.0970   18.2600 N.3   145  SER145     -0.1217
     54  CA        32.3930    9.3280   19.0540 C.3   145  SER145      0.1889
     55  C         31.9730   10.5710   18.2780 C.2   145  SER145      0.2288
     56  O         31.3870   11.4930   18.8430 O.2   145  SER145     -0.2866
     57  CB        33.7810    9.5580   19.6640 C.3   145  SER145      0.2089
     58  OG        34.0370    8.6340   20.7040 O.3   145  SER145     -0.2183
     59  N         33.7340   -0.8560   22.6660 N.3   192  ASP192     -0.1225
     60  CA        33.4640   -0.2010   23.9510 C.3   192  ASP192      0.1805
     61  C         32.0350    0.3580   23.9820 C.2   192  ASP192      0.2598
     62  O         31.3340    0.3620   22.9690 O.2   192  ASP192     -0.2718
     63  CB        34.4470    0.9780   24.0900 C.3   192  ASP192      0.1424
     64  CG        34.6950    1.4050   25.5310 C.2   192  ASP192      0.3668
     65  OD1       34.0900    0.8650   26.4810 O.co2 192  ASP192     -0.2456
     66  OD2       35.5310    2.3070   25.7110 O.co2 192  ASP192     -0.2456
     67  N         31.6020    0.8000   25.1630 N.am  193  SER193     -0.1938
     68  CA        30.2980    1.4330   25.3130 C.3   193  SER193      0.2055
     69  C         30.5830    2.9080   24.9790 C.2   193  SER193      0.2643
     70  O         31.7450    3.3090   24.9270 O.2   193  SER193     -0.2714
     71  CB        29.7810    1.2830   26.7540 C.3   193  SER193      0.2130
     72  OG        30.7170    1.7600   27.7150 O.3   193  SER193     -0.2179
     73  N         29.5460    3.6950   24.7010 N.am  194  CYS194     -0.1953
     74  CA        29.7300    5.1080   24.3740 C.3   194  CYS194      0.1843
     75  C         28.5010    5.8940   24.8250 C.2   194  CYS194      0.2625
     76  O         27.6150    5.3300   25.4690 O.2   194  CYS194     -0.2714
     77  CB        29.9690    5.2830   22.8680 C.3   194  CYS194      0.0997
     78  SG        30.8230    6.8390   22.4110 S.3   194  CYS194     -0.0797
     79  N         28.4610    7.1930   24.5270 N.am  195  GLN195     -0.1963
     80  CA        27.3190    8.0330   24.9090 C.3   195  GLN195      0.1733
     81  C         26.0180    7.4190   24.3840 C.2   195  GLN195      0.2616
     82  O         25.9460    7.0100   23.2270 O.2   195  GLN195     -0.2715
     83  CB        27.4830    9.4580   24.3590 C.3   195  GLN195      0.0408
     84  CG        26.3110   10.3800   24.6900 C.3   195  GLN195      0.0908
     85  CD        26.2890   11.6480   23.8530 C.2   195  GLN195      0.2608
     86  OE1       27.3250   12.2510   23.5880 O.2   195  GLN195     -0.2717
     87  NE2       25.0970   12.0560   23.4320 N.am  195  GLN195     -0.0878
     88  N         25.0050    7.3390   25.2430 N.am  196  GLY196     -0.1955
     89  CA        23.7410    6.7480   24.8360 C.3   196  GLY196      0.1869
     90  C         23.5630    5.3270   25.3590 C.2   196  GLY196      0.2309
     91  O         22.4630    4.7770   25.3100 O.2   196  GLY196     -0.2863
     92  N         24.4070    4.6030   28.4700 N.3   198  SER198     -0.1217
     93  CA        24.2200    4.8000   29.9080 C.3   198  SER198      0.1889
     94  C         23.0340    4.0280   30.4740 C.2   198  SER198      0.2288
     95  O         21.9890    3.9110   29.8250 O.2   198  SER198     -0.2866
     96  CB        24.0210    6.2930   30.2070 C.3   198  SER198      0.2089
     97  OG        25.2040    7.0260   29.9550 O.3   198  SER198     -0.2183
     98  N         26.3290    0.6720   32.8410 N.3   216  VAL216     -0.1231
     99  CA        27.1290    1.6410   32.0930 C.3   216  VAL216      0.1692
    100  C         27.0120    3.0040   32.7610 C.2   216  VAL216      0.2593
    101  O         25.9190    3.5560   32.8850 O.2   216  VAL216     -0.2718
    102  CB        26.6690    1.7690   30.6220 C.3   216  VAL216      0.0266
    103  CG1       27.4790    2.8690   29.9170 C.3   216  VAL216      0.0020
    104  CG2       26.8330    0.4460   29.8960 C.3   216  VAL216      0.0020
    105  N         28.1420    3.5430   33.2000 N.am  217  SER217     -0.1938
    106  CA        28.1440    4.8270   33.8820 C.3   217  SER217      0.2055
    107  C         28.9620    5.9330   33.2260 C.2   217  SER217      0.2643
    108  O         28.4050    6.9550   32.8330 O.2   217  SER217     -0.2714
    109  CB        28.5990    4.6440   35.3340 C.3   217  SER217      0.2130
    110  OG        28.6190    5.8850   36.0210 O.3   217  SER217     -0.2179
    111  N         30.2760    5.7450   33.1130 N.am  218  TRP218     -0.1959
    112  CA        31.1210    6.7960   32.5400 C.3   218  TRP218      0.1771
    113  C         32.4350    6.3330   31.9220 C.2   218  TRP218      0.2620
    114  O         32.7990    5.1600   32.0000 O.2   218  TRP218     -0.2715
    115  CB        31.4050    7.8710   33.6030 C.3   218  TRP218      0.0590
    116  CG        32.2030    7.3840   34.7790 C.ar  218  TRP218      0.0006
    117  CD1       31.7200    6.8110   35.9230 C.ar  218  TRP218      0.0946
    118  CD2       33.6260    7.4730   34.9480 C.ar  218  TRP218      0.0152
    119  NE1       32.7540    6.5460   36.7940 N.ar  218  TRP218     -0.2442
    120  CE2       33.9330    6.9410   36.2190 C.ar  218  TRP218      0.0810
    121  CE3       34.6690    7.9480   34.1480 C.ar  218  TRP218      0.0012
    122  CZ2       35.2430    6.8780   36.7110 C.ar  218  TRP218      0.0191
    123  CZ3       35.9710    7.8850   34.6360 C.ar  218  TRP218      0.0001
    124  CH2       36.2450    7.3520   35.9050 C.ar  218  TRP218      0.0015
    125  N         33.1360    7.2720   31.2950 N.am  219  GLY219     -0.1940
    126  CA        34.4100    6.9660   30.6660 C.3   219  GLY219      0.2014
    127  C         34.9050    8.1240   29.8230 C.2   219  GLY219      0.2639
    128  O         34.1120    8.9290   29.3330 O.2   219  GLY219     -0.2714
    129  N         36.2220    8.2310   29.6890 N.am  220  ARG220     -0.1963
    130  CA        36.8420    9.2910   28.8990 C.3   220  ARG220      0.1729
    131  C         36.8090    8.8750   27.4320 C.2   220  ARG220      0.2617
    132  O         37.4860    7.9270   27.0350 O.2   220  ARG220     -0.2715
    133  CB        38.2890    9.5100   29.3510 C.3   220  ARG220      0.0348
    134  CG        39.1030   10.3880   28.4160 C.3   220  ARG220      0.0492
    135  CD        38.6890   11.8450   28.4900 C.3   220  ARG220      0.2205
    136  NE        39.1030   12.6010   27.3060 N.pl3 220  ARG220     -0.0865
    137  CZ        40.3370   12.6260   26.8030 C.cat 220  ARG220      0.5346
    138  NH1       41.3230   11.9350   27.3660 N.pl3 220  ARG220      0.1354
    139  NH2       40.5890   13.3570   25.7270 N.pl3 220  ARG220      0.1354
    140  N         36.0170    9.5870   26.6360 N.am  221  GLY221     -0.1940
    141  CA        35.8930    9.2550   25.2290 C.3   221  GLY221      0.2014
    142  C         35.2830    7.8740   25.0940 C.2   221  GLY221      0.2639
    143  O         34.6220    7.3950   26.0190 O.2   221  GLY221     -0.2714
    144  N         35.5250    7.2200   23.9620 N.am  222  CYS222     -0.1967
    145  CA        35.0050    5.8720   23.7110 C.3   222  CYS222      0.1712
    146  C         36.0150    5.1140   22.8640 C.2   222  CYS222      0.2296
    147  O         36.4750    5.6230   21.8430 O.2   222  CYS222     -0.2864
    148  CB        33.6760    5.9300   22.9460 C.3   222  CYS222      0.0983
    149  SG        32.3750    6.9430   23.7170 S.3   222  CYS222     -0.0798
    150  N         41.7220    3.9480   28.3600 N.3   227  LYS227     -0.1231
    151  CA        40.5680    4.6530   28.9160 C.3   227  LYS227      0.1678
    152  C         39.3570    3.7160   28.8430 C.2   227  LYS227      0.2434
    153  O         38.5090    3.8420   27.9580 O.2   227  LYS227     -0.2733
    154  CB        40.2920    5.9460   28.1330 C.3   227  LYS227      0.0284
    155  CG        41.4730    6.8970   28.0540 C.3   227  LYS227      0.0035
    156  CD        41.8210    7.4630   29.4180 C.3   227  LYS227      0.0206
    157  CE        43.2100    8.0930   29.4080 C.3   227  LYS227      0.1093
    158  NZ        43.5830    8.6320   30.7470 N.3   227  LYS227     -0.1314
    159  N         39.2660    2.7610   29.7840 N.am  228  PRO228     -0.2718
    160  CA        38.1780    1.7820   29.8530 C.3   228  PRO228      0.1535
    161  C         36.8220    2.3920   30.1880 C.2   228  PRO228      0.2599
    162  O         36.7240    3.5330   30.6520 O.2   228  PRO228     -0.2715
    163  CB        38.6100    0.8630   31.0010 C.3   228  PRO228      0.0310
    164  CG        40.0940    1.1110   31.1440 C.3   228  PRO228      0.0237
    165  CD        40.2010    2.5730   30.9040 C.3   228  PRO228      0.0939
    166  N         35.7730    1.6210   29.9320 N.am  229  GLY229     -0.1941
    167  CA        34.4470    2.0700   30.2840 C.3   229  GLY229      0.2014
    168  C         34.3620    1.7910   31.7740 C.2   229  GLY229      0.2638
    169  O         35.0040    0.8580   32.2590 O.2   229  GLY229     -0.2714
    170  N         33.6360    2.6290   32.5080 N.am  230  VAL230     -0.1977
    171  CA        33.4880    2.4440   33.9480 C.3   230  VAL230      0.1596
    172  C         32.0220    2.1290   34.2380 C.2   230  VAL230      0.2287
    173  O         31.1100    2.7680   33.6970 O.2   230  VAL230     -0.2864
    174  CB        33.9600    3.6900   34.7460 C.3   230  VAL230      0.0276
    175  CG1       33.9600    3.3920   36.2410 C.3   230  VAL230      0.0022
    176  CG2       35.3560    4.1030   34.3030 C.3   230  VAL230      0.0022
@<TRIPOS>BOND
     1    53    54    1
     2    55    56    2
     3    55    54    1
     4    54    57    1
     5    46    45    1
     6    46    47    2
     7    45    48    1
     8    45    44    1
     9    57    58    1
    10    48    49    1
    11    49    50    1
    12    50    51    1
    13    51    52    1
    14   147   146    2
    15    78    77    1
    16    78   149    1
    17    59    60    1
    18   146   145    1
    19    77    74    1
    20   148   145    1
    21   148   149    1
    22    62    61    2
    23    82    81    2
    24    87    85   am
    25    86    85    2
    26   145   144    1
    27    85    84    1
    28    60    61    1
    29    60    63    1
    30   144   142   am
    31    61    67   am
    32    63    64    1
    33    83    84    1
    34    83    80    1
    35    74    73    1
    36    74    75    1
    37    81    80    1
    38    81    88   am
    39    79    75   am
    40    79    80    1
    41    73    69   am
    42    75    76    2
    43    89    88    1
    44    89    90    1
    45    70    69    2
    46    69    68    1
    47   142   141    1
    48   142   143    2
    49    67    68    1
    50   141   140    1
    51    91    90    2
    52    68    71    1
    53    64    66   ar
    54    64    65   ar
    55   139   137    1
    56   140   131   am
    57    71    72    1
    58   137   136    2
    59   137   138    1
    60   132   131    2
    61   136   135    1
    62   131   130    1
    63   153   152    2
    64   155   154    1
    65   155   156    1
    66   154   151    1
    67   150   151    1
    68   134   135    1
    69   134   133    1
    70    92    93    1
    71   152   151    1
    72   152   159   am
    73   130   133    1
    74   130   129    1
    75   128   127    2
    76   157   156    1
    77   157   158    1
    78   129   127   am
    79   159   160    1
    80   159   165    1
    81   127   126    1
    82    95    94    2
    83   160   161    1
    84   160   163    1
    85   104   102    1
    86    93    96    1
    87    93    94    1
    88   103   102    1
    89   166   161   am
    90   166   167    1
    91    97    96    1
    92   161   162    2
    93   167   168    1
    94   102    99    1
    95   126   125    1
    96   165   164    1
    97   163   164    1
    98   125   113   am
    99   168   169    2
   100   168   170   am
   101   113   114    2
   102   113   112    1
   103    99   100    1
   104    99    98    1
   105    10     8   ar
   106    10     9   ar
   107    33    31    1
   108   170   171    1
   109   112   111    1
   110   112   115    1
   111   100   101    2
   112   100   105   am
   113   108   107    2
   114     8     6   ar
   115     9     7   ar
   116   111   107   am
   117   105   106    1
   118   107   106    1
   119   115   116    1
   120    32    31    1
   121   173   172    2
   122    31    30    1
   123   106   109    1
   124   171   172    1
   125   171   174    1
   126   121   123   ar
   127   121   118   ar
   128     4     3    2
   129     6     7   ar
   130     6     5    1
   131   176   174    1
   132   123   124   ar
   133    22    21    2
   134   174   175    1
   135     3     2    1
   136   116   118   ar
   137   116   117   ar
   138    30    27    1
   139    43    42   ar
   140    43    41   ar
   141   118   120   ar
   142    42    40   ar
   143    27    28    1
   144    27    26    1
   145    29    28    2
   146   109   110    1
   147     5     2    1
   148    25    23    1
   149    41    39   ar
   150    21    26   am
   151    21    20    1
   152   124   122   ar
   153     2     1    1
   154   117   119   ar
   155    40    39   ar
   156   120   122   ar
   157   120   119   ar
   158    39    38    1
   159    20    23    1
   160    20    19    1
   161    23    24    1
   162    14    13    2
   163    38    35    1
   164    19    13   am
   165    13    12    1
   166    34    35    1
   167    35    36    1
   168    11    12    1
   169    37    36    2
   170    12    15    1
   171    15    16    1
   172    16    18   ar
   173    16    17   ar
