@<TRIPOS>MOLECULE
tmp/1w14A00.pdb
 187 182 0 0 0
SMALL
GASTEIGER

@<TRIPOS>ATOM
      1  N         18.5040    6.3980   28.1540 N.3    31  CYS31      -0.1235
      2  CA        19.4670    5.4060   28.6110 C.3    31  CYS31       0.1677
      3  C         18.9180    3.9820   28.5390 C.2    31  CYS31       0.2270
      4  O         17.7350    3.7680   28.3190 O.2    31  CYS31      -0.2867
      5  CB        19.8260    5.6890   30.0880 C.3    31  CYS31       0.0956
      6  SG        20.9790    7.0520   30.4470 S.3    31  CYS31      -0.0801
      7  N         22.6760    9.3050   36.8520 N.3    46  HIS46      -0.1241
      8  CA        23.0280   10.4400   35.9800 C.3    46  HIS46       0.1621
      9  C         22.1080   10.6240   34.7700 C.2    46  HIS46       0.2264
     10  O         22.0530   11.7070   34.1810 O.2    46  HIS46      -0.2867
     11  CB        24.5230   10.4090   35.5720 C.3    46  HIS46       0.0745
     12  CG        24.8280    9.6130   34.3360 C.ar   46  HIS46       0.0817
     13  ND1       25.5420    8.4330   34.3690 N.ar   46  HIS46      -0.2268
     14  CD2       24.5840    9.8620   33.0260 C.ar   46  HIS46       0.1154
     15  CE1       25.7260    7.9920   33.1360 C.ar   46  HIS46       0.1986
     16  NE2       25.1540    8.8410   32.3020 N.ar   46  HIS46      -0.2212
     17  N         35.5270   15.4210   38.0060 N.3    91  THR91      -0.1203
     18  CA        36.0660   15.7520   36.6840 C.3    91  THR91       0.1994
     19  C         35.7190   14.6430   35.6870 C.2    91  THR91       0.2617
     20  O         35.1800   14.9140   34.6170 O.2    91  THR91      -0.2717
     21  CB        37.6040   15.9380   36.7230 C.3    91  THR91       0.1784
     22  OG1       37.9400   16.9780   37.6520 O.3    91  THR91      -0.2211
     23  CG2       38.1340   16.3110   35.3380 C.3    91  THR91       0.0376
     24  N         35.9760   13.3970   36.0800 N.am   92  LEU92      -0.1979
     25  CA        35.6980   12.2390   35.2410 C.3    92  LEU92       0.1596
     26  C         34.7620   11.2360   35.9100 C.2    92  LEU92       0.2287
     27  O         33.7980   10.7740   35.3040 O.2    92  LEU92      -0.2864
     28  CB        37.0020   11.5180   34.8790 C.3    92  LEU92       0.0297
     29  CG        38.0630   12.2260   34.0270 C.3    92  LEU92       0.0022
     30  CD1       39.2230   11.2610   33.8010 C.3    92  LEU92       0.0001
     31  CD2       37.4750   12.6850   32.6920 C.3    92  LEU92       0.0001
     32  N         31.9680    9.3390   38.2020 N.3    94  HIS94      -0.1241
     33  CA        30.5770    9.4890   38.6050 C.3    94  HIS94       0.1621
     34  C         30.3660    8.4660   39.7150 C.2    94  HIS94       0.2264
     35  O         30.4320    7.2560   39.4840 O.2    94  HIS94      -0.2867
     36  CB        29.6470    9.2670   37.4120 C.3    94  HIS94       0.0745
     37  CG        29.6680   10.4000   36.4300 C.ar   94  HIS94       0.0817
     38  ND1       28.6040   11.2620   36.2670 N.ar   94  HIS94      -0.2268
     39  CD2       30.6580   10.8730   35.6380 C.ar   94  HIS94       0.1154
     40  CE1       28.9420   12.2210   35.4230 C.ar   94  HIS94       0.1986
     41  NE2       30.1830   12.0080   35.0280 N.ar   94  HIS94      -0.2212
     42  N         26.1700    5.3640   20.5590 N.3   142  LYS142     -0.1245
     43  CA        27.0360    5.7090   19.4310 C.3   142  LYS142      0.1561
     44  C         27.9680    4.5990   18.9610 C.2   142  LYS142      0.2260
     45  O         28.4930    3.8290   19.7690 O.2   142  LYS142     -0.2867
     46  CB        27.8960    6.9290   19.7610 C.3   142  LYS142      0.0271
     47  CG        27.1430    8.2180   19.9190 C.3   142  LYS142      0.0035
     48  CD        28.1260    9.3390   20.1440 C.3   142  LYS142      0.0206
     49  CE        27.4340   10.6570   20.4540 C.3   142  LYS142      0.1093
     50  NZ        28.4450   11.7390   20.5190 N.3   142  LYS142     -0.1314
     51  N         32.7160    8.0950   18.0190 N.3   145  SER145     -0.1217
     52  CA        32.6490    9.3130   18.8280 C.3   145  SER145      0.1889
     53  C         32.1610   10.5280   18.0320 C.2   145  SER145      0.2288
     54  O         31.5400   11.4330   18.5910 O.2   145  SER145     -0.2866
     55  CB        34.0070    9.6140   19.4680 C.3   145  SER145      0.2089
     56  OG        34.3050    8.6800   20.4910 O.3   145  SER145     -0.2183
     57  N         34.1620   -0.8010   22.8120 N.3   192  ASP192     -0.1225
     58  CA        33.8400   -0.1850   24.0880 C.3   192  ASP192      0.1805
     59  C         32.4260    0.3880   24.0410 C.2   192  ASP192      0.2598
     60  O         31.8210    0.4820   22.9710 O.2   192  ASP192     -0.2718
     61  CB        34.8380    0.9670   24.3340 C.3   192  ASP192      0.1424
     62  CG        34.7800    1.5250   25.7480 C.2   192  ASP192      0.3668
     63  OD1       34.1890    0.8800   26.6430 O.co2 192  ASP192     -0.2456
     64  OD2       35.3490    2.6150   25.9640 O.co2 192  ASP192     -0.2456
     65  N         31.8850    0.7140   25.2120 N.am  193  SER193     -0.1938
     66  CA        30.5790    1.3470   25.2810 C.3   193  SER193      0.2055
     67  C         30.8620    2.8470   25.0450 C.2   193  SER193      0.2643
     68  O         32.0210    3.2660   25.0210 O.2   193  SER193     -0.2714
     69  CB        29.9100    1.0880   26.6390 C.3   193  SER193      0.2130
     70  OG        30.7920    1.3210   27.7180 O.3   193  SER193     -0.2179
     71  N         29.8180    3.6480   24.8550 N.am  194  CYS194     -0.1953
     72  CA        29.9940    5.0740   24.5880 C.3   194  CYS194      0.1843
     73  C         28.7040    5.8050   24.9870 C.2   194  CYS194      0.2625
     74  O         27.7940    5.1800   25.5470 O.2   194  CYS194     -0.2714
     75  CB        30.2790    5.2500   23.0770 C.3   194  CYS194      0.0997
     76  SG        31.0540    6.8260   22.5750 S.3   194  CYS194     -0.0797
     77  N         28.6190    7.1090   24.6960 N.am  195  GLN195     -0.1963
     78  CA        27.4100    7.8940   24.9990 C.3   195  GLN195      0.1733
     79  C         26.1980    7.2260   24.3550 C.2   195  GLN195      0.2616
     80  O         26.2470    6.8200   23.1860 O.2   195  GLN195     -0.2715
     81  CB        27.5150    9.3450   24.4800 C.3   195  GLN195      0.0408
     82  CG        28.2860   10.3050   25.3760 C.3   195  GLN195      0.0908
     83  CD        29.7450    9.9390   25.5010 C.2   195  GLN195      0.2608
     84  OE1       30.4490    9.8060   24.5010 O.2   195  GLN195     -0.2717
     85  NE2       30.2130    9.7730   26.7340 N.am  195  GLN195     -0.0878
     86  N         25.0990    7.1700   25.1010 N.am  196  GLY196     -0.1955
     87  CA        23.8990    6.5190   24.6080 C.3   196  GLY196      0.1869
     88  C         23.7700    5.1160   25.1970 C.2   196  GLY196      0.2309
     89  O         22.6860    4.5330   25.1850 O.2   196  GLY196     -0.2863
     90  N         24.7460    4.4170   28.4830 N.3   198  SER198     -0.1217
     91  CA        24.6250    4.5190   29.9370 C.3   198  SER198      0.1889
     92  C         23.4120    3.8520   30.5430 C.2   198  SER198      0.2288
     93  O         22.3280    3.8490   29.9640 O.2   198  SER198     -0.2866
     94  CB        24.6820    5.9730   30.3890 C.3   198  SER198      0.2089
     95  OG        25.9960    6.4490   30.2390 O.3   198  SER198     -0.2183
     96  N         26.7690    0.6300   32.9200 N.3   216  VAL216     -0.1231
     97  CA        27.5650    1.5980   32.1710 C.3   216  VAL216      0.1692
     98  C         27.4730    2.9790   32.8340 C.2   216  VAL216      0.2593
     99  O         26.3950    3.5410   32.9900 O.2   216  VAL216     -0.2718
    100  CB        27.1380    1.7050   30.6730 C.3   216  VAL216      0.0266
    101  CG1       28.0790    2.6650   29.9420 C.3   216  VAL216      0.0020
    102  CG2       27.1850    0.3480   29.9900 C.3   216  VAL216      0.0020
    103  N         28.6170    3.5220   33.2170 N.am  217  SER217     -0.1938
    104  CA        28.6360    4.8050   33.8890 C.3   217  SER217      0.2055
    105  C         29.4590    5.8890   33.1950 C.2   217  SER217      0.2643
    106  O         28.9000    6.8700   32.7200 O.2   217  SER217     -0.2714
    107  CB        29.0930    4.6110   35.3480 C.3   217  SER217      0.2130
    108  OG        29.2780    5.8450   36.0020 O.3   217  SER217     -0.2179
    109  N         30.7720    5.7020   33.1000 N.am  218  TRP218     -0.1959
    110  CA        31.6260    6.7240   32.4890 C.3   218  TRP218      0.1771
    111  C         32.9290    6.2250   31.8720 C.2   218  TRP218      0.2620
    112  O         33.2430    5.0310   31.8950 O.2   218  TRP218     -0.2715
    113  CB        31.9460    7.8340   33.5110 C.3   218  TRP218      0.0590
    114  CG        32.7030    7.3700   34.7380 C.ar  218  TRP218      0.0006
    115  CD1       32.1650    6.8430   35.8860 C.ar  218  TRP218      0.0946
    116  CD2       34.1240    7.4190   34.9520 C.ar  218  TRP218      0.0152
    117  NE1       33.1630    6.5660   36.7970 N.ar  218  TRP218     -0.2442
    118  CE2       34.3720    6.9070   36.2520 C.ar  218  TRP218      0.0810
    119  CE3       35.2090    7.8430   34.1760 C.ar  218  TRP218      0.0012
    120  CZ2       35.6650    6.8120   36.7910 C.ar  218  TRP218      0.0191
    121  CZ3       36.4960    7.7480   34.7110 C.ar  218  TRP218      0.0001
    122  CH2       36.7110    7.2360   36.0080 C.ar  218  TRP218      0.0015
    123  N         33.6790    7.1710   31.3190 N.am  219  GLY219     -0.1940
    124  CA        34.9520    6.8590   30.7010 C.3   219  GLY219      0.2014
    125  C         35.4950    8.0580   29.9520 C.2   219  GLY219      0.2639
    126  O         34.7350    8.9560   29.5800 O.2   219  GLY219     -0.2714
    127  N         36.8170    8.1190   29.8070 N.am  220  ARG220     -0.1963
    128  CA        37.4530    9.1910   29.0600 C.3   220  ARG220      0.1729
    129  C         37.3360    8.7960   27.5830 C.2   220  ARG220      0.2617
    130  O         37.9290    7.8010   27.1530 O.2   220  ARG220     -0.2715
    131  CB        38.9220    9.3240   29.4580 C.3   220  ARG220      0.0348
    132  CG        39.7180   10.2270   28.5370 C.3   220  ARG220      0.0492
    133  CD        39.1720   11.6500   28.5300 C.3   220  ARG220      0.2205
    134  NE        39.3400   12.2960   27.2260 N.pl3 220  ARG220     -0.0865
    135  CZ        40.5090   12.5090   26.6240 C.cat 220  ARG220      0.5346
    136  NH1       41.6470   12.1320   27.1990 N.pl3 220  ARG220      0.1354
    137  NH2       40.5420   13.1020   25.4370 N.pl3 220  ARG220      0.1354
    138  N         36.5340    9.5440   26.8290 N.am  221  GLY221     -0.1940
    139  CA        36.3320    9.2360   25.4260 C.3   221  GLY221      0.2014
    140  C         35.6890    7.8690   25.2550 C.2   221  GLY221      0.2639
    141  O         35.0990    7.3380   26.2000 O.2   221  GLY221     -0.2714
    142  N         35.8300    7.2930   24.0630 N.am  222  CYS222     -0.1967
    143  CA        35.2770    5.9740   23.7390 C.3   222  CYS222      0.1712
    144  C         36.2820    5.1610   22.9300 C.2   222  CYS222      0.2296
    145  O         36.6440    5.5440   21.8210 O.2   222  CYS222     -0.2864
    146  CB        33.9860    6.1110   22.9340 C.3   222  CYS222      0.0983
    147  SG        32.6550    6.9810   23.8090 S.3   222  CYS222     -0.0798
    148  N         39.4470    4.6330   23.6200 N.3   224  LEU224     -0.1245
    149  CA        40.7650    5.2640   23.6290 C.3   224  LEU224      0.1561
    150  C         41.7300    4.3640   24.3970 C.2   224  LEU224      0.2260
    151  O         41.3570    3.7880   25.4250 O.2   224  LEU224     -0.2867
    152  CB        40.7150    6.6420   24.2960 C.3   224  LEU224      0.0270
    153  CG        40.0380    7.8030   23.5660 C.3   224  LEU224      0.0019
    154  CD1       40.2080    9.0890   24.3730 C.3   224  LEU224      0.0001
    155  CD2       40.6450    7.9700   22.1750 C.3   224  LEU224      0.0001
    156  N         42.2990    3.8280   28.4190 N.3   227  LYS227     -0.1231
    157  CA        41.1400    4.4840   29.0220 C.3   227  LYS227      0.1678
    158  C         39.9210    3.5640   28.9620 C.2   227  LYS227      0.2434
    159  O         39.0250    3.7490   28.1330 O.2   227  LYS227     -0.2733
    160  CB        40.8370    5.8140   28.3140 C.3   227  LYS227      0.0284
    161  CG        42.0030    6.7880   28.2730 C.3   227  LYS227      0.0035
    162  CD        42.4380    7.1800   29.6740 C.3   227  LYS227      0.0206
    163  CE        43.7080    8.0220   29.6350 C.3   227  LYS227      0.1093
    164  NZ        44.1890    8.3740   30.9910 N.3   227  LYS227     -0.1314
    165  N         39.8500    2.5860   29.8800 N.am  228  PRO228     -0.2718
    166  CA        38.7430    1.6220   29.9480 C.3   228  PRO228      0.1535
    167  C         37.3850    2.2380   30.3080 C.2   228  PRO228      0.2599
    168  O         37.2990    3.3840   30.7560 O.2   228  PRO228     -0.2715
    169  CB        39.1910    0.6630   31.0610 C.3   228  PRO228      0.0310
    170  CG        40.6950    0.8510   31.1300 C.3   228  PRO228      0.0237
    171  CD        40.8380    2.3260   30.9400 C.3   228  PRO228      0.0939
    172  N         36.3220    1.4770   30.0710 N.am  229  GLY229     -0.1955
    173  CA        35.0000    1.9370   30.4480 C.3   229  GLY229      0.1869
    174  C         34.8840    1.7010   31.9500 C.2   229  GLY229      0.2309
    175  O         35.5330    0.7920   32.4840 O.2   229  GLY229     -0.2863
    176  N         32.3080    0.9620   35.1560 N.3   231  TYR231     -0.1241
    177  CA        30.9790    0.4630   35.4790 C.3   231  TYR231      0.1605
    178  C         30.7170    0.4640   36.9710 C.2   231  TYR231      0.2264
    179  O         31.6170    0.2010   37.7550 O.2   231  TYR231     -0.2867
    180  CB        30.8260   -0.9630   34.9390 C.3   231  TYR231      0.0534
    181  CG        31.0710   -1.0480   33.4560 C.ar  231  TYR231     -0.0201
    182  CD1       32.3660   -0.9870   32.9380 C.ar  231  TYR231     -0.0009
    183  CD2       30.0040   -1.0990   32.5600 C.ar  231  TYR231     -0.0009
    184  CE1       32.5860   -0.9620   31.5600 C.ar  231  TYR231      0.0417
    185  CE2       30.2120   -1.0730   31.1810 C.ar  231  TYR231      0.0417
    186  CZ        31.5030   -1.0020   30.6880 C.ar  231  TYR231      0.1957
    187  OH        31.7060   -0.9480   29.3270 O.3   231  TYR231     -0.2866
@<TRIPOS>BOND
     1    51    52    1
     2    53    54    2
     3    53    52    1
     4    52    55    1
     5    44    43    1
     6    44    45    2
     7    43    46    1
     8    43    42    1
     9    55    56    1
    10    46    47    1
    11    47    48    1
    12    48    49    1
    13    49    50    1
    14   145   144    2
    15   155   153    1
    16    76    75    1
    17    76   147    1
    18    57    58    1
    19   144   143    1
    20   146   143    1
    21   146   147    1
    22    60    59    2
    23    75    72    1
    24    80    79    2
    25   153   152    1
    26   153   154    1
    27   148   149    1
    28   149   152    1
    29   149   150    1
    30   143   142    1
    31    59    58    1
    32    59    65   am
    33   142   140   am
    34    58    61    1
    35    61    62    1
    36    79    78    1
    37    79    86   am
    38   150   151    2
    39    81    78    1
    40    81    82    1
    41    84    83    2
    42    72    71    1
    43    72    73    1
    44    87    86    1
    45    87    88    1
    46    77    73   am
    47    77    78    1
    48    71    67   am
    49    73    74    2
    50    68    67    2
    51    67    66    1
    52    89    88    2
    53    65    66    1
    54   140   139    1
    55   140   141    2
    56    66    69    1
    57    82    83    1
    58   139   138    1
    59   137   135    1
    60    83    85   am
    61    62    64   ar
    62    62    63   ar
    63   135   136    1
    64   135   134    2
    65    69    70    1
    66   138   129   am
    67   130   129    2
    68   134   133    1
    69   129   128    1
    70   159   158    2
    71     1     2    1
    72   161   160    1
    73   161   162    1
    74   160   157    1
    75     4     3    2
    76   156   157    1
    77    90    91    1
    78   133   132    1
    79   132   131    1
    80     3     2    1
    81     2     5    1
    82   158   157    1
    83   158   165   am
    84   128   131    1
    85   128   127    1
    86   187   186    1
    87   126   125    2
    88   163   162    1
    89   163   164    1
    90   127   125   am
    91   165   166    1
    92   165   171    1
    93    91    94    1
    94    91    92    1
    95   101   100    1
    96   166   167    1
    97   166   169    1
    98   125   124    1
    99    93    92    2
   100   102   100    1
   101   172   167   am
   102   172   173    1
   103     5     6    1
   104    95    94    1
   105   167   168    2
   106   173   174    1
   107   100    97    1
   108   186   185   ar
   109   186   184   ar
   110   124   123    1
   111   171   170    1
   112   169   170    1
   113   185   183   ar
   114   123   111   am
   115   184   182   ar
   116   111   112    2
   117   111   110    1
   118   174   175    2
   119    97    98    1
   120    97    96    1
   121    16    14   ar
   122    16    15   ar
   123   110   109    1
   124   110   113    1
   125   183   181   ar
   126    31    29    1
   127   106   105    2
   128    98    99    2
   129    98   103   am
   130   182   181   ar
   131    14    12   ar
   132   109   105   am
   133    15    13   ar
   134   105   104    1
   135   103   104    1
   136   181   180    1
   137   113   114    1
   138    30    29    1
   139   104   107    1
   140    29    28    1
   141   119   121   ar
   142   119   116   ar
   143    10     9    2
   144    12    13   ar
   145    12    11    1
   146    20    19    2
   147   121   122   ar
   148   114   116   ar
   149   114   115   ar
   150     9     8    1
   151    28    25    1
   152   180   177    1
   153   116   118   ar
   154    41    40   ar
   155    41    39   ar
   156   176   177    1
   157    25    26    1
   158    25    24    1
   159    27    26    2
   160    23    21    1
   161   107   108    1
   162    40    38   ar
   163   177   178    1
   164    11     8    1
   165    39    37   ar
   166    19    24   am
   167    19    18    1
   168   115   117   ar
   169     8     7    1
   170   122   120   ar
   171   118   120   ar
   172   118   117   ar
   173    38    37   ar
   174    37    36    1
   175    18    21    1
   176    18    17    1
   177    21    22    1
   178   178   179    2
   179    36    33    1
   180    32    33    1
   181    33    34    1
   182    35    34    2
