@<TRIPOS>MOLECULE
tmp/1w19B02.pdb
 134 132 0 0 0
SMALL
GASTEIGER

@<TRIPOS>ATOM
      1  N        -23.3110   14.7770   13.2090 N.3    12  SER12      -0.1217
      2  CA       -22.1430   15.6420   13.3420 C.3    12  SER12       0.1889
      3  C        -22.1220   16.6280   12.1700 C.2    12  SER12       0.2288
      4  O        -22.9710   16.5570   11.2880 O.2    12  SER12      -0.2866
      5  CB       -20.8470   14.8260   13.4460 C.3    12  SER12       0.2089
      6  OG       -20.7580   13.8820   12.4160 O.3    12  SER12      -0.2183
      7  N        -18.8930   18.1840   10.6350 N.3    14  TRP14      -0.1227
      8  CA       -17.7470   18.1760    9.7180 C.3    14  TRP14       0.1737
      9  C        -18.2470   17.6810    8.3610 C.2    14  TRP14       0.2595
     10  O        -18.8850   16.6230    8.2800 O.2    14  TRP14      -0.2718
     11  CB       -16.6700   17.1940   10.1990 C.3    14  TRP14       0.0564
     12  CG       -15.6010   17.7280   11.1160 C.ar   14  TRP14       0.0003
     13  CD1      -15.7600   18.1850   12.4010 C.ar   14  TRP14       0.0946
     14  CD2      -14.1990   17.8000   10.8400 C.ar   14  TRP14       0.0152
     15  NE1      -14.5480   18.5570   12.9290 N.ar   14  TRP14      -0.2442
     16  CE2      -13.5700   18.3290   11.9940 C.ar   14  TRP14       0.0810
     17  CE3      -13.4070   17.4800    9.7280 C.ar   14  TRP14       0.0012
     18  CZ2      -12.1900   18.5500   12.0650 C.ar   14  TRP14       0.0191
     19  CZ3      -12.0330   17.6950    9.7980 C.ar   14  TRP14       0.0001
     20  CH2      -11.4390   18.2330   10.9570 C.ar   14  TRP14       0.0015
     21  N        -17.9270   18.4210    7.3050 N.am   15  HIS15      -0.1975
     22  CA       -18.4680   18.1730    5.9590 C.3    15  HIS15       0.1656
     23  C        -19.9870   18.3960    5.9730 C.2    15  HIS15       0.2291
     24  O        -20.7690   17.5060    5.6380 O.2    15  HIS15      -0.2864
     25  CB       -18.0820   16.7800    5.4350 C.3    15  HIS15       0.0771
     26  CG       -16.6160   16.4700    5.5640 C.ar   15  HIS15       0.0820
     27  ND1      -15.6610   17.0160    4.7270 N.ar   15  HIS15      -0.2267
     28  CD2      -15.9440   15.6800    6.4350 C.ar   15  HIS15       0.1154
     29  CE1      -14.4660   16.5760    5.0790 C.ar   15  HIS15       0.1986
     30  NE2      -14.6080   15.7720    6.1200 N.ar   15  HIS15      -0.2212
     31  N        -20.4170   18.5790   16.7660 N.3    44  LEU44      -0.1231
     32  CA       -19.3420   19.0740   15.9130 C.3    44  LEU44       0.1693
     33  C        -18.7430   17.9540   15.0670 C.2    44  LEU44       0.2593
     34  O        -18.8840   17.9560   13.8430 O.2    44  LEU44      -0.2718
     35  CB       -18.2600   19.7610   16.7450 C.3    44  LEU44       0.0284
     36  CG       -17.0980   20.3610   15.9450 C.3    44  LEU44       0.0019
     37  CD1      -17.6050   21.1130   14.7200 C.3    44  LEU44       0.0001
     38  CD2      -16.2630   21.2730   16.7980 C.3    44  LEU44       0.0001
     39  N        -18.0940   16.9860   15.7150 N.am   45  GLY45      -0.1942
     40  CA       -17.4400   15.9090   15.0020 C.3    45  GLY45       0.2014
     41  C        -17.9790   14.5410   15.3670 C.2    45  GLY45       0.2639
     42  O        -18.7220   14.3780   16.3510 O.2    45  GLY45      -0.2714
     43  N        -17.5950   13.5430   14.5780 N.am   46  ALA46      -0.1963
     44  CA       -18.0460   12.1780   14.8290 C.3    46  ALA46       0.1728
     45  C        -17.7130   11.6800   16.2450 C.2    46  ALA46       0.2616
     46  O        -18.5140   10.9380   16.8330 O.2    46  ALA46      -0.2715
     47  CB       -17.4730   11.2210   13.7880 C.3    46  ALA46       0.0334
     48  N        -16.5530   12.0730   16.7840 N.am   47  ILE47      -0.1963
     49  CA       -16.1230   11.6440   18.1240 C.3    47  ILE47       0.1727
     50  C        -17.1240   12.0950   19.1720 C.2    47  ILE47       0.2616
     51  O        -17.2380   11.4660   20.2180 O.2    47  ILE47      -0.2715
     52  CB       -14.7320   12.2370   18.4920 C.3    47  ILE47       0.0290
     53  CG1      -13.6210   11.6850   17.5920 C.3    47  ILE47       0.0022
     54  CG2      -14.3760   12.0160   19.9670 C.3    47  ILE47       0.0023
     55  CD1      -13.2040   10.3080   17.9340 C.3    47  ILE47       0.0001
     56  N        -17.8220   13.2080   18.9210 N.am   48  GLU48      -0.1977
     57  CA       -18.8040   13.7420   19.8890 C.3    48  GLU48       0.1602
     58  C        -20.1530   12.9900   19.8370 C.2    48  GLU48       0.2287
     59  O        -21.0190   13.1700   20.7100 O.2    48  GLU48      -0.2864
     60  CB       -19.0230   15.2370   19.6750 C.3    48  GLU48       0.0415
     61  CG       -17.9110   16.1190   20.2450 C.3    48  GLU48       0.1163
     62  CD       -16.5830   15.9470   19.5050 C.2    48  GLU48       0.3649
     63  OE1      -16.5140   16.3330   18.3330 O.co2  48  GLU48      -0.2457
     64  OE2      -15.6040   15.4370   20.0930 O.co2  48  GLU48      -0.2457
     65  N        -19.7240   12.2220    8.7780 N.3    68  VAL68      -0.1231
     66  CA       -18.8590   12.0220    7.6170 C.3    68  VAL68       0.1692
     67  C        -17.4080   12.1200    8.0600 C.2    68  VAL68       0.2592
     68  O        -16.9610   13.1880    8.4670 O.2    68  VAL68      -0.2718
     69  CB       -19.1020   13.1180    6.5290 C.3    68  VAL68       0.0266
     70  CG1      -18.2800   12.8320    5.2830 C.3    68  VAL68       0.0020
     71  CG2      -20.5570   13.2050    6.1750 C.3    68  VAL68       0.0020
     72  N        -16.6760   11.0160    7.9800 N.am   69  VAL69      -0.1966
     73  CA       -15.2470   10.9910    8.2820 C.3    69  VAL69       0.1727
     74  C        -14.5520   10.6220    6.9770 C.2    69  VAL69       0.2616
     75  O        -14.8570    9.5840    6.4040 O.2    69  VAL69      -0.2715
     76  CB       -14.8920    9.9400    9.3560 C.3    69  VAL69       0.0290
     77  CG1      -13.4320   10.0730    9.7720 C.3    69  VAL69       0.0023
     78  CG2      -15.8010   10.0650   10.5670 C.3    69  VAL69       0.0023
     79  N        -13.6520   11.4840    6.5140 N.am   70  ILE70      -0.1977
     80  CA       -12.9220   11.2950    5.2550 C.3    70  ILE70       0.1596
     81  C        -11.4340   11.2440    5.5590 C.2    70  ILE70       0.2287
     82  O        -10.9340   12.0660    6.3030 O.2    70  ILE70      -0.2864
     83  CB       -13.2060   12.4440    4.2760 C.3    70  ILE70       0.0276
     84  CG1      -14.7160   12.5650    4.0220 C.3    70  ILE70       0.0022
     85  CG2      -12.4430   12.2240    2.9810 C.3    70  ILE70       0.0022
     86  CD1      -15.1120   13.8160    3.2530 C.3    70  ILE70       0.0001
     87  N         -7.5910   11.7100    5.6840 N.3    72  GLY72      -0.1210
     88  CA        -6.7110   12.8480    5.4550 C.3    72  GLY72       0.1956
     89  C         -5.2720   12.4140    5.2260 C.2    72  GLY72       0.2612
     90  O         -5.0270   11.3440    4.6510 O.2    72  GLY72      -0.2717
     91  N         -4.3180   13.2210    5.6850 N.am   73  GLN73      -0.1965
     92  CA        -2.9020   12.9140    5.4710 C.3    73  GLN73       0.1733
     93  C         -2.2780   12.0320    6.5770 C.2    73  GLN73       0.2617
     94  O         -1.2140   11.4690    6.3680 O.2    73  GLN73      -0.2715
     95  CB        -2.0700   14.2030    5.3000 C.3    73  GLN73       0.0408
     96  CG        -2.6850   15.3010    4.4010 C.3    73  GLN73       0.0908
     97  CD        -1.8580   16.6080    4.4230 C.2    73  GLN73       0.2608
     98  OE1       -1.5570   17.1410    5.5010 O.2    73  GLN73      -0.2717
     99  NE2       -1.4750   17.1040    3.2410 N.am   73  GLN73      -0.0878
    100  N         -2.9380   11.8950    7.7250 N.am   74  THR74      -0.1951
    101  CA        -2.3580   11.1880    8.8840 C.3    74  THR74       0.1897
    102  C         -3.1560    9.9310    9.2280 C.2    74  THR74       0.2313
    103  O         -4.1960    9.7010    8.6340 O.2    74  THR74      -0.2863
    104  CB        -2.3100   12.1250   10.1120 C.3    74  THR74       0.1794
    105  OG1       -3.6240   12.3080   10.6570 O.3    74  THR74      -0.2208
    106  CG2       -1.8140   13.5440    9.7260 C.3    74  THR74       0.0378
    107  N         -4.9220    9.6590   11.7620 N.3    76  HIS76      -0.1226
    108  CA        -6.0240   10.0630   12.6220 C.3    76  HIS76       0.1752
    109  C         -7.4070    9.5720   12.1880 C.2    76  HIS76       0.2596
    110  O         -8.2480    9.3090   13.0450 O.2    76  HIS76      -0.2718
    111  CB        -6.0430   11.5720   12.8090 C.3    76  HIS76       0.0759
    112  CG        -6.7650   12.0040   14.0440 C.ar   76  HIS76       0.0818
    113  ND1       -7.7840   12.9330   14.0250 N.ar   76  HIS76      -0.2268
    114  CD2       -6.6380   11.6110   15.3340 C.ar   76  HIS76       0.1154
    115  CE1       -8.2450   13.1060   15.2530 C.ar   76  HIS76       0.1986
    116  NE2       -7.5610   12.3210   16.0660 N.ar   76  HIS76      -0.2212
    117  N         -7.6430    9.4700   10.8770 N.am   77  PHE77      -0.1976
    118  CA        -8.8480    8.8400   10.3360 C.3    77  PHE77       0.1639
    119  C         -9.1650    7.5370   11.0750 C.2    77  PHE77       0.2290
    120  O        -10.2870    7.3440   11.5300 O.2    77  PHE77      -0.2864
    121  CB        -8.6560    8.5460    8.8360 C.3    77  PHE77       0.0560
    122  CG        -9.7780    7.7510    8.2100 C.ar   77  PHE77      -0.0200
    123  CD1      -10.9050    8.3900    7.7070 C.ar   77  PHE77      -0.0042
    124  CD2       -9.6970    6.3630    8.1030 C.ar   77  PHE77      -0.0042
    125  CE1      -11.9280    7.6700    7.1280 C.ar   77  PHE77      -0.0003
    126  CE2      -10.7310    5.6290    7.5330 C.ar   77  PHE77      -0.0003
    127  CZ       -11.8520    6.2850    7.0410 C.ar   77  PHE77      -0.0000
    128  N        -10.3440    8.1060   14.7910 N.3    80  VAL80      -0.1245
    129  CA       -11.7040    8.6420   14.7960 C.3    80  VAL80       0.1561
    130  C        -12.7430    7.5320   14.5140 C.2    80  VAL80       0.2260
    131  O        -13.7680    7.4010   15.2010 O.2    80  VAL80      -0.2867
    132  CB       -11.8890    9.7740   13.7670 C.3    80  VAL80       0.0252
    133  CG1      -13.3360   10.2390   13.7470 C.3    80  VAL80       0.0019
    134  CG2      -10.9440   10.9780   14.0750 C.3    80  VAL80       0.0019
@<TRIPOS>BOND
     1    85    83    1
     2    99    97   am
     3    86    84    1
     4    84    83    1
     5    83    80    1
     6    96    97    1
     7    96    95    1
     8    97    98    2
     9    90    89    2
    10    27    29   ar
    11    27    26   ar
    12    29    30   ar
    13    89    88    1
    14    89    91   am
    15    80    81    1
    16    80    79    1
    17    70    69    1
    18    95    92    1
    19    25    26    1
    20    25    22    1
    21    88    87    1
    22    92    91    1
    23    92    93    1
    24    81    82    2
    25    26    28   ar
    26    24    23    2
    27    22    23    1
    28    22    21    1
    29    30    28   ar
    30    71    69    1
    31    94    93    2
    32    75    74    2
    33    79    74   am
    34    69    66    1
    35    93   100   am
    36    74    73    1
    37   127   125   ar
    38   127   126   ar
    39   125   123   ar
    40    21     9   am
    41   126   124   ar
    42    66    67    1
    43    66    65    1
    44   123   122   ar
    45   100   101    1
    46    72    67   am
    47    72    73    1
    48    67    68    2
    49   124   122   ar
    50   122   121    1
    51    10     9    2
    52    73    76    1
    53     9     8    1
    54   103   102    2
    55   121   118    1
    56   101   102    1
    57   101   104    1
    58    76    77    1
    59    76    78    1
    60     8    11    1
    61     8     7    1
    62   106   104    1
    63    17    19   ar
    64    17    14   ar
    65    19    20   ar
    66   104   105    1
    67    11    12    1
    68   118   117    1
    69   118   119    1
    70    14    12   ar
    71    14    16   ar
    72   117   109   am
    73    20    18   ar
    74   119   120    2
    75    12    13   ar
    76     4     3    2
    77   107   108    1
    78    16    18   ar
    79    16    15   ar
    80     3     2    1
    81   109   108    1
    82   109   110    2
    83    13    15   ar
    84     6     5    1
    85   108   111    1
    86   111   112    1
    87     1     2    1
    88     2     5    1
    89   133   132    1
    90   132   134    1
    91   132   129    1
    92    47    44    1
    93    34    33    2
    94   113   112   ar
    95   113   115   ar
    96   112   114   ar
    97   130   129    1
    98   130   131    2
    99    43    44    1
   100    43    41   am
   101    37    36    1
   102   128   129    1
   103    44    45    1
   104    40    41    1
   105    40    39    1
   106    33    39   am
   107    33    32    1
   108   115   116   ar
   109   114   116   ar
   110    41    42    2
   111    32    35    1
   112    32    31    1
   113    36    35    1
   114    36    38    1
   115    45    48   am
   116    45    46    2
   117    48    49    1
   118    53    55    1
   119    53    52    1
   120    49    52    1
   121    49    50    1
   122    63    62   ar
   123    52    54    1
   124    56    50   am
   125    56    57    1
   126    50    51    2
   127    62    64   ar
   128    62    61    1
   129    60    57    1
   130    60    61    1
   131    58    57    1
   132    58    59    2
