@<TRIPOS>MOLECULE
tmp/1w1aA00.pdb
 113 113 0 0 0
SMALL
GASTEIGER

@<TRIPOS>ATOM
      1  N         68.2840   24.1340    6.3170 N.3    50  ASP50      -0.1225
      2  CA        69.6850   23.7350    6.1560 C.3    50  ASP50       0.1805
      3  C         70.2020   24.7610    5.1550 C.2    50  ASP50       0.2598
      4  O         69.5980   24.9570    4.1010 O.2    50  ASP50      -0.2718
      5  CB        69.8300   22.3310    5.5550 C.3    50  ASP50       0.1424
      6  CG        69.5210   21.2180    6.5550 C.2    50  ASP50       0.3668
      7  OD1       69.3270   21.5110    7.7560 O.co2  50  ASP50      -0.2456
      8  OD2       69.4750   20.0420    6.1320 O.co2  50  ASP50      -0.2456
      9  N         71.3060   25.4240    5.4730 N.am   51  ASN51      -0.1960
     10  CA        71.8410   26.4410    4.5820 C.3    51  ASN51       0.1819
     11  C         73.2840   26.1890    4.2160 C.2    51  ASN51       0.2622
     12  O         74.1800   26.3880    5.0350 O.2    51  ASN51      -0.2715
     13  CB        71.6730   27.8060    5.2440 C.3    51  ASN51       0.1195
     14  CG        70.2090   28.1600    5.4370 C.2    51  ASN51       0.2630
     15  OD1       69.6000   28.8420    4.5950 O.2    51  ASN51      -0.2716
     16  ND2       69.6220   27.6600    6.5230 N.am   51  ASN51      -0.0877
     17  N         73.5000   25.7370    2.9860 N.am   52  GLY52      -0.1940
     18  CA        74.8470   25.4430    2.5280 C.3    52  GLY52       0.2014
     19  C         75.4230   26.5890    1.7270 C.2    52  GLY52       0.2638
     20  O         76.6220   26.8270    1.7610 O.2    52  GLY52      -0.2714
     21  N         74.5590   27.2860    0.9940 N.am   53  TYR53      -0.1973
     22  CA        74.9540   28.4350    0.1830 C.3    53  TYR53       0.1639
     23  C         73.7100   29.2850   -0.0690 C.2    53  TYR53       0.2290
     24  O         72.5790   28.8620    0.2040 O.2    53  TYR53      -0.2864
     25  CB        75.5650   27.9920   -1.1540 C.3    53  TYR53       0.0560
     26  CG        74.6350   27.1690   -2.0060 C.ar   53  TYR53      -0.0198
     27  CD1       74.5180   25.7960   -1.8120 C.ar   53  TYR53      -0.0009
     28  CD2       73.8300   27.7710   -2.9580 C.ar   53  TYR53      -0.0009
     29  CE1       73.6130   25.0490   -2.5490 C.ar   53  TYR53       0.0417
     30  CE2       72.9250   27.0400   -3.6950 C.ar   53  TYR53       0.0417
     31  CZ        72.8190   25.6790   -3.4870 C.ar   53  TYR53       0.1957
     32  OH        71.9160   24.9530   -4.2170 O.3    53  TYR53      -0.2866
     33  N         75.7560   22.8360   10.9850 N.3   101  HIS101     -0.1241
     34  CA        75.7110   21.9010    9.8710 C.3   101  HIS101      0.1621
     35  C         77.1560   21.6000    9.4440 C.2   101  HIS101      0.2264
     36  O         77.4210   21.2030    8.3020 O.2   101  HIS101     -0.2867
     37  CB        74.8980   22.5050    8.7190 C.3   101  HIS101      0.0745
     38  CG        74.2910   21.4850    7.8070 C.ar  101  HIS101      0.0817
     39  ND1       73.9750   20.2100    8.2240 N.ar  101  HIS101     -0.2268
     40  CD2       73.9040   21.5640    6.5100 C.ar  101  HIS101      0.1154
     41  CE1       73.4210   19.5450    7.2250 C.ar  101  HIS101      0.1986
     42  NE2       73.3650   20.3450    6.1740 N.ar  101  HIS101     -0.2212
     43  N         80.9570   20.7010    5.8090 N.3   105  HIS105     -0.1241
     44  CA        79.8730   19.8110    5.4160 C.3   105  HIS105      0.1621
     45  C         80.3700   18.4230    4.9990 C.2   105  HIS105      0.2264
     46  O         79.8990   17.8440    4.0150 O.2   105  HIS105     -0.2867
     47  CB        79.0530   20.4460    4.2850 C.3   105  HIS105      0.0745
     48  CG        77.7030   19.8240    4.1030 C.ar  105  HIS105      0.0817
     49  ND1       77.4450   18.8660    3.1470 N.ar  105  HIS105     -0.2268
     50  CD2       76.5490   19.9860    4.7940 C.ar  105  HIS105      0.1154
     51  CE1       76.1910   18.4630    3.2570 C.ar  105  HIS105      0.1986
     52  NE2       75.6260   19.1260    4.2490 N.ar  105  HIS105     -0.2212
     53  N         74.8890   15.9130    5.1870 N.3   143  ARG143     -0.1231
     54  CA        74.4630   14.8650    4.2610 C.3   143  ARG143      0.1694
     55  C         73.4530   13.9420    4.9200 C.2   143  ARG143      0.2592
     56  O         73.0300   12.9460    4.3320 O.2   143  ARG143     -0.2718
     57  CB        75.6890   14.0690    3.7780 C.3   143  ARG143      0.0321
     58  CG        76.8960   14.9630    3.4640 C.3   143  ARG143      0.0489
     59  CD        78.1470   14.1850    3.1160 C.3   143  ARG143      0.2205
     60  NE        79.2940   15.0770    2.9370 N.pl3 143  ARG143     -0.0865
     61  CZ        80.4230   14.7480    2.3070 C.cat 143  ARG143      0.5346
     62  NH1       80.5750   13.5360    1.7800 N.pl3 143  ARG143      0.1354
     63  NH2       81.4040   15.6390    2.1980 N.pl3 143  ARG143      0.1354
     64  N         73.0630   14.2900    6.1430 N.am  144  GLY144     -0.1957
     65  CA        72.1030   13.4830    6.8790 C.3   144  GLY144      0.1869
     66  C         72.6870   12.1540    7.3150 C.2   144  GLY144      0.2309
     67  O         71.9700   11.2630    7.7720 O.2   144  GLY144     -0.2863
     68  N         64.6580   15.3390   11.2460 N.3   164  TRP164     -0.1241
     69  CA        63.4430   15.9780   10.7470 C.3   164  TRP164      0.1605
     70  C         62.3610   14.9570   10.4550 C.2   164  TRP164      0.2264
     71  O         62.6280   13.7640   10.3840 O.2   164  TRP164     -0.2867
     72  CB        63.7550   16.7780    9.4790 C.3   164  TRP164      0.0550
     73  CG        64.3100   15.9530    8.3730 C.ar  164  TRP164      0.0003
     74  CD1       63.6260   15.4150    7.3330 C.ar  164  TRP164      0.0946
     75  CD2       65.6760   15.5380    8.2160 C.ar  164  TRP164      0.0152
     76  NE1       64.4750   14.6840    6.5290 N.ar  164  TRP164     -0.2442
     77  CE2       65.7390   14.7440    7.0500 C.ar  164  TRP164      0.0810
     78  CE3       66.8530   15.7620    8.9490 C.ar  164  TRP164      0.0012
     79  CZ2       66.9370   14.1680    6.5970 C.ar  164  TRP164      0.0191
     80  CZ3       68.0440   15.1900    8.5000 C.ar  164  TRP164      0.0001
     81  CH2       68.0740   14.4000    7.3310 C.ar  164  TRP164      0.0015
     82  N         65.7470   21.4330   -3.1850 N.3   171  TRP171     -0.1241
     83  CA        67.1480   21.7910   -3.2270 C.3   171  TRP171      0.1605
     84  C         67.8690   21.5020   -4.5370 C.2   171  TRP171      0.2264
     85  O         69.0830   21.6760   -4.6240 O.2   171  TRP171     -0.2867
     86  CB        67.8690   21.0810   -2.0990 C.3   171  TRP171      0.0550
     87  CG        67.5450   19.6180   -2.0670 C.ar  171  TRP171      0.0003
     88  CD1       66.5610   19.0070   -1.3400 C.ar  171  TRP171      0.0946
     89  CD2       68.1730   18.5870   -2.8370 C.ar  171  TRP171      0.0152
     90  NE1       66.5390   17.6630   -1.6100 N.ar  171  TRP171     -0.2442
     91  CE2       67.5160   17.3760   -2.5260 C.ar  171  TRP171      0.0810
     92  CE3       69.2260   18.5700   -3.7600 C.ar  171  TRP171      0.0012
     93  CZ2       67.8800   16.1540   -3.1070 C.ar  171  TRP171      0.0191
     94  CZ3       69.5890   17.3510   -4.3380 C.ar  171  TRP171      0.0001
     95  CH2       68.9140   16.1610   -4.0060 C.ar  171  TRP171      0.0015
     96  N         62.0990   20.3780    7.4320 N.3   197  LEU197     -0.1245
     97  CA        63.4550   20.6470    6.9710 C.3   197  LEU197      0.1561
     98  C         63.2650   21.2690    5.5980 C.2   197  LEU197      0.2260
     99  O         62.8440   20.6030    4.6590 O.2   197  LEU197     -0.2867
    100  CB        64.2960   19.3710    6.8330 C.3   197  LEU197      0.0270
    101  CG        65.4290   19.5600    5.8060 C.3   197  LEU197      0.0019
    102  CD1       66.3890   20.6060    6.2870 C.3   197  LEU197      0.0001
    103  CD2       66.1540   18.2470    5.5710 C.3   197  LEU197      0.0001
    104  N         64.8040   24.2210    2.5150 N.3   199  HIS199     -0.1241
    105  CA        65.9840   24.8770    1.9820 C.3   199  HIS199      0.1621
    106  C         65.4290   26.1930    1.4850 C.2   199  HIS199      0.2264
    107  O         64.2280   26.2980    1.2550 O.2   199  HIS199     -0.2867
    108  CB        66.6050   24.0560    0.8450 C.3   199  HIS199      0.0745
    109  CG        67.0540   22.7050    1.2900 C.ar  199  HIS199      0.0817
    110  ND1       66.2200   21.6040    1.2770 N.ar  199  HIS199     -0.2268
    111  CD2       68.2060   22.3000    1.8780 C.ar  199  HIS199      0.1154
    112  CE1       66.8400   20.5810    1.8410 C.ar  199  HIS199      0.1986
    113  NE2       68.0460   20.9770    2.2160 N.ar  199  HIS199     -0.2212
@<TRIPOS>BOND
     1    85    84    2
     2    84    83    1
     3    94    95   ar
     4    94    92   ar
     5    32    31    1
     6    95    93   ar
     7    92    89   ar
     8    30    31   ar
     9    30    28   ar
    10    31    29   ar
    11    83    82    1
    12    83    86    1
    13    93    91   ar
    14    28    26   ar
    15    89    91   ar
    16    89    87   ar
    17    29    27   ar
    18    91    90   ar
    19    86    87    1
    20    87    88   ar
    21    26    27   ar
    22    26    25    1
    23    90    88   ar
    24    25    22    1
    25    23    22    1
    26    23    24    2
    27    22    21    1
    28   108   109    1
    29   108   105    1
    30    21    19   am
    31   107   106    2
    32   110   109   ar
    33   110   112   ar
    34   109   111   ar
    35   106   105    1
    36    19    20    2
    37    19    18    1
    38    62    61    1
    39   112   113   ar
    40   111   113   ar
    41   105   104    1
    42    63    61    1
    43    61    60    2
    44    18    17    1
    45    60    59    1
    46    17    11   am
    47    59    58    1
    48    49    51   ar
    49    49    48   ar
    50    51    52   ar
    51    58    57    1
    52    57    54    1
    53    46    45    2
    54     4     3    2
    55    48    47    1
    56    48    50   ar
    57    11    10    1
    58    11    12    2
    59    52    50   ar
    60    54    55    1
    61    54    53    1
    62    47    44    1
    63    56    55    2
    64    10    13    1
    65    10     9    1
    66    15    14    2
    67    99    98    2
    68    55    64   am
    69    45    44    1
    70     3     9   am
    71     3     2    1
    72    13    14    1
    73    44    43    1
    74    14    16   am
    75     5     2    1
    76     5     6    1
    77   103   101    1
    78    98    97    1
    79   101   102    1
    80   101   100    1
    81     8     6   ar
    82    64    65    1
    83     2     1    1
    84    42    40   ar
    85    42    41   ar
    86    40    38   ar
    87    76    77   ar
    88    76    74   ar
    89     6     7   ar
    90    79    77   ar
    91    79    81   ar
    92   100    97    1
    93    65    66    1
    94    97    96    1
    95    77    75   ar
    96    41    39   ar
    97    66    67    2
    98    81    80   ar
    99    74    73   ar
   100    38    39   ar
   101    38    37    1
   102    75    73   ar
   103    75    78   ar
   104    36    35    2
   105    73    72    1
   106    80    78   ar
   107    37    34    1
   108    35    34    1
   109    72    69    1
   110    34    33    1
   111    71    70    2
   112    70    69    1
   113    69    68    1
