@<TRIPOS>MOLECULE
tmp/1w1sA01.pdb
 187 179 0 0 0
SMALL
GASTEIGER

@<TRIPOS>ATOM
      1  N         70.5770   28.6710   23.0040 N.3   130  ASP130     -0.1225
      2  CA        71.9970   29.0300   23.0030 C.3   130  ASP130      0.1805
      3  C         72.4910   29.3370   24.4000 C.2   130  ASP130      0.2597
      4  O         73.6870   29.2400   24.6770 O.2   130  ASP130     -0.2718
      5  CB        72.2430   30.2820   22.1640 C.3   130  ASP130      0.1424
      6  CG        71.8930   30.0930   20.7150 C.2   130  ASP130      0.3668
      7  OD1       71.8690   28.9350   20.2440 O.co2 130  ASP130     -0.2456
      8  OD2       71.6360   31.0610   19.9740 O.co2 130  ASP130     -0.2456
      9  N         71.5630   29.7470   25.2600 N.am  131  TYR131     -0.1976
     10  CA        71.8670   30.2480   26.5930 C.3   131  TYR131      0.1639
     11  C         71.0560   29.4220   27.5850 C.2   131  TYR131      0.2290
     12  O         69.8420   29.3020   27.4450 O.2   131  TYR131     -0.2864
     13  CB        71.4820   31.7280   26.6640 C.3   131  TYR131      0.0560
     14  CG        71.6340   32.3880   28.0110 C.ar  131  TYR131     -0.0198
     15  CD1       72.8700   32.8330   28.4550 C.ar  131  TYR131     -0.0009
     16  CD2       70.5280   32.6060   28.8240 C.ar  131  TYR131     -0.0009
     17  CE1       73.0040   33.4540   29.6850 C.ar  131  TYR131      0.0417
     18  CE2       70.6510   33.2260   30.0520 C.ar  131  TYR131      0.0417
     19  CZ        71.8890   33.6450   30.4780 C.ar  131  TYR131      0.1957
     20  OH        72.0100   34.2670   31.6990 O.3   131  TYR131     -0.2866
     21  N         64.7760   27.6120   20.7780 N.3   145  ILE145     -0.1245
     22  CA        65.5020   27.2980   19.5570 C.3   145  ILE145      0.1561
     23  C         67.0000   27.4570   19.7190 C.2   145  ILE145      0.2260
     24  O         67.4810   28.3660   20.3930 O.2   145  ILE145     -0.2867
     25  CB        65.0230   28.1660   18.3700 C.3   145  ILE145      0.0252
     26  CG1       65.3100   29.6450   18.6340 C.3   145  ILE145      0.0019
     27  CG2       63.5510   27.9160   18.0850 C.3   145  ILE145      0.0019
     28  CD1       65.1000   30.5480   17.4080 C.3   145  ILE145      0.0001
     29  N         74.4680   20.4160   15.1330 N.3   241  TYR241     -0.1241
     30  CA        74.1320   21.7860   15.4680 C.3   241  TYR241      0.1605
     31  C         74.5890   22.6480   14.3110 C.2   241  TYR241      0.2264
     32  O         75.7190   22.5140   13.8390 O.2   241  TYR241     -0.2867
     33  CB        74.8680   22.1800   16.7470 C.3   241  TYR241      0.0534
     34  CG        74.9630   23.6630   17.0530 C.ar  241  TYR241     -0.0201
     35  CD1       74.1780   24.2330   18.0480 C.ar  241  TYR241     -0.0009
     36  CD2       75.8680   24.4810   16.3840 C.ar  241  TYR241     -0.0009
     37  CE1       74.2730   25.5710   18.3550 C.ar  241  TYR241      0.0417
     38  CE2       75.9750   25.8300   16.6860 C.ar  241  TYR241      0.0417
     39  CZ        75.1730   26.3690   17.6730 C.ar  241  TYR241      0.1957
     40  OH        75.2640   27.7020   17.9890 O.3   241  TYR241     -0.2866
     41  N         74.3230   26.8050   13.2880 N.3   243  GLU243     -0.1245
     42  CA        73.8930   28.1930   13.3250 C.3   243  GLU243      0.1567
     43  C         74.7820   28.9920   12.3870 C.2   243  GLU243      0.2260
     44  O         75.5280   28.4210   11.5870 O.2   243  GLU243     -0.2867
     45  CB        73.9570   28.7540   14.7450 C.3   243  GLU243      0.0388
     46  CG        72.9390   28.1330   15.6850 C.3   243  GLU243      0.1160
     47  CD        72.8140   28.8880   16.9910 C.2   243  GLU243      0.3649
     48  OE1       72.1390   28.3690   17.8990 O.co2 243  GLU243     -0.2457
     49  OE2       73.3870   29.9980   17.1070 O.co2 243  GLU243     -0.2457
     50  N         78.3410   28.2180   12.0190 N.3   286  GLU286     -0.1245
     51  CA        78.8050   27.5830   13.2310 C.3   286  GLU286      0.1567
     52  C         78.1410   26.2190   13.3020 C.2   286  GLU286      0.2260
     53  O         76.9120   26.1150   13.2600 O.2   286  GLU286     -0.2867
     54  CB        78.4450   28.4230   14.4550 C.3   286  GLU286      0.0388
     55  CG        79.1450   27.9690   15.7260 C.3   286  GLU286      0.1160
     56  CD        78.5180   28.5470   16.9780 C.2   286  GLU286      0.3649
     57  OE1       77.3170   28.8950   16.9440 O.co2 286  GLU286     -0.2457
     58  OE2       79.2290   28.6520   18.0000 O.co2 286  GLU286     -0.2457
     59  N         78.4110   27.4050   26.5690 N.3   325  ARG325     -0.1231
     60  CA        79.4040   28.3600   26.0780 C.3   325  ARG325      0.1694
     61  C         79.0660   29.8170   26.3990 C.2   325  ARG325      0.2591
     62  O         79.9550   30.6180   26.6720 O.2   325  ARG325     -0.2718
     63  CB        79.6180   28.1890   24.5750 C.3   325  ARG325      0.0321
     64  CG        78.3830   28.4580   23.7340 C.3   325  ARG325      0.0489
     65  CD        78.4470   27.8630   22.3370 C.3   325  ARG325      0.2205
     66  NE        77.1840   28.0480   21.6310 N.pl3 325  ARG325     -0.0865
     67  CZ        76.0620   27.4080   21.9410 C.cat 325  ARG325      0.5346
     68  NH1       76.0520   26.5290   22.9370 N.pl3 325  ARG325      0.1354
     69  NH2       74.9520   27.6410   21.2540 N.pl3 325  ARG325      0.1354
     70  N         77.7840   30.1640   26.3680 N.am  326  VAL326     -0.1980
     71  CA        77.3970   31.5620   26.5360 C.3   326  VAL326      0.1595
     72  C         77.5550   32.0650   27.9720 C.2   326  VAL326      0.2287
     73  O         77.7480   33.2580   28.2010 O.2   326  VAL326     -0.2864
     74  CB        75.9640   31.8280   26.0440 C.3   326  VAL326      0.0276
     75  CG1       75.6190   33.3020   26.2180 C.3   326  VAL326      0.0022
     76  CG2       75.8150   31.4020   24.5850 C.3   326  VAL326      0.0022
     77  N         80.5470   34.0220   28.3810 N.3   329  GLU329     -0.1245
     78  CA        80.3780   35.3480   27.7990 C.3   329  GLU329      0.1567
     79  C         79.6930   36.2860   28.7900 C.2   329  GLU329      0.2260
     80  O         80.1190   37.4300   28.9740 O.2   329  GLU329     -0.2867
     81  CB        79.5730   35.2780   26.4960 C.3   329  GLU329      0.0388
     82  CG        80.2670   34.5250   25.3690 C.3   329  GLU329      0.1160
     83  CD        79.3430   34.2360   24.1970 C.2   329  GLU329      0.3649
     84  OE1       78.4950   35.1010   23.8730 O.co2 329  GLU329     -0.2457
     85  OE2       79.4640   33.1420   23.5970 O.co2 329  GLU329     -0.2457
     86  N         76.7250   43.4630   30.3520 N.3   339  TRP339     -0.1241
     87  CA        75.6460   42.4840   30.3060 C.3   339  TRP339      0.1605
     88  C         74.3240   43.1360   30.7050 C.2   339  TRP339      0.2264
     89  O         73.3430   43.0720   29.9640 O.2   339  TRP339     -0.2867
     90  CB        75.9410   41.2890   31.2170 C.3   339  TRP339      0.0550
     91  CG        74.9520   40.1720   31.0540 C.ar  339  TRP339      0.0003
     92  CD1       73.8960   39.8840   31.8700 C.ar  339  TRP339      0.0946
     93  CD2       74.9170   39.1990   30.0010 C.ar  339  TRP339      0.0152
     94  NE1       73.2110   38.7930   31.3920 N.ar  339  TRP339     -0.2442
     95  CE2       73.8190   38.3520   30.2470 C.ar  339  TRP339      0.0810
     96  CE3       75.7100   38.9540   28.8750 C.ar  339  TRP339      0.0012
     97  CZ2       73.4930   37.2870   29.4110 C.ar  339  TRP339      0.0191
     98  CZ3       75.3840   37.8960   28.0470 C.ar  339  TRP339      0.0001
     99  CH2       74.2880   37.0750   28.3210 C.ar  339  TRP339      0.0015
    100  N         66.7210   43.6790   21.3090 N.3   345  TRP345     -0.1241
    101  CA        66.9120   42.5490   20.4160 C.3   345  TRP345      0.1605
    102  C         65.8040   42.4780   19.3820 C.2   345  TRP345      0.2264
    103  O         64.6450   42.7290   19.6900 O.2   345  TRP345     -0.2867
    104  CB        66.9300   41.2500   21.2190 C.3   345  TRP345      0.0550
    105  CG        68.1750   41.0610   22.0230 C.ar  345  TRP345      0.0003
    106  CD1       69.1900   41.9570   22.1900 C.ar  345  TRP345      0.0946
    107  CD2       68.5450   39.8950   22.7620 C.ar  345  TRP345      0.0152
    108  NE1       70.1660   41.4220   22.9940 N.ar  345  TRP345     -0.2442
    109  CE2       69.7940   40.1540   23.3590 C.ar  345  TRP345      0.0810
    110  CE3       67.9400   38.6510   22.9870 C.ar  345  TRP345      0.0012
    111  CZ2       70.4500   39.2200   24.1580 C.ar  345  TRP345      0.0191
    112  CZ3       68.5910   37.7280   23.7800 C.ar  345  TRP345      0.0001
    113  CH2       69.8320   38.0140   24.3540 C.ar  345  TRP345      0.0015
    114  N         64.1920   39.6600   16.9730 N.3   347  ASN347     -0.1240
    115  CA        64.1750   38.2440   16.6420 C.3   347  ASN347      0.1653
    116  C         63.0090   37.9150   15.7380 C.2   347  ASN347      0.2266
    117  O         61.8650   38.2780   16.0200 O.2   347  ASN347     -0.2867
    118  CB        64.1170   37.3880   17.9080 C.3   347  ASN347      0.1155
    119  CG        65.2210   37.7320   18.8930 C.2   347  ASN347      0.2627
    120  OD1       66.3110   37.1560   18.8480 O.2   347  ASN347     -0.2716
    121  ND2       64.9470   38.6770   19.7850 N.am  347  ASN347     -0.0877
    122  N         75.8060   39.5660   18.9610 N.3   375  PRO375     -0.2116
    123  CA        75.8020   38.6920   17.7870 C.3   375  PRO375      0.1372
    124  C         74.6200   38.9630   16.8640 C.2   375  PRO375      0.2244
    125  O         73.5250   39.2900   17.3190 O.2   375  PRO375     -0.2868
    126  CB        75.6890   37.2840   18.3910 C.3   375  PRO375      0.0268
    127  CG        75.1090   37.4810   19.7370 C.3   375  PRO375      0.0207
    128  CD        75.5600   38.8360   20.2150 C.3   375  PRO375      0.0892
    129  N         72.7060   36.6400   14.6200 N.3   377  ILE377     -0.1245
    130  CA        72.6210   35.2110   14.3760 C.3   377  ILE377      0.1561
    131  C         71.6120   34.8930   13.2790 C.2   377  ILE377      0.2260
    132  O         70.5010   35.4290   13.2630 O.2   377  ILE377     -0.2867
    133  CB        72.2750   34.4810   15.6850 C.3   377  ILE377      0.0252
    134  CG1       73.3540   34.7620   16.7350 C.3   377  ILE377      0.0019
    135  CG2       72.1380   32.9900   15.4540 C.3   377  ILE377      0.0019
    136  CD1       73.0240   34.2090   18.1190 C.3   377  ILE377      0.0001
    137  N         70.2720   31.4050   10.8720 N.3   379  TYR379     -0.1241
    138  CA        70.3490   29.9970   10.4980 C.3   379  TYR379      0.1605
    139  C         68.9840   29.4380   10.1480 C.2   379  TYR379      0.2264
    140  O         67.9580   29.8830   10.6740 O.2   379  TYR379     -0.2867
    141  CB        71.0210   29.1510   11.5870 C.3   379  TYR379      0.0534
    142  CG        70.3340   29.1580   12.9370 C.ar  379  TYR379     -0.0201
    143  CD1       69.3240   28.2470   13.2310 C.ar  379  TYR379     -0.0009
    144  CD2       70.7110   30.0590   13.9280 C.ar  379  TYR379     -0.0009
    145  CE1       68.6970   28.2400   14.4750 C.ar  379  TYR379      0.0417
    146  CE2       70.0920   30.0640   15.1700 C.ar  379  TYR379      0.0417
    147  CZ        69.0890   29.1510   15.4380 C.ar  379  TYR379      0.1957
    148  OH        68.4730   29.1460   16.6720 O.3   379  TYR379     -0.2866
    149  N         65.9450   31.4910   11.4150 N.3   402  ALA402     -0.1245
    150  CA        65.9530   32.2500   12.6500 C.3   402  ALA402      0.1562
    151  C         66.8970   33.4190   12.4210 C.2   402  ALA402      0.2260
    152  O         68.0500   33.2300   12.0370 O.2   402  ALA402     -0.2867
    153  CB        66.4250   31.3970   13.8170 C.3   402  ALA402      0.0290
    154  N         68.3130   36.5190   14.5590 N.3   404  SER404     -0.1217
    155  CA        68.3810   37.0820   15.8970 C.3   404  SER404      0.1889
    156  C         69.4460   38.1560   15.9880 C.2   404  SER404      0.2288
    157  O         70.6420   37.8610   16.0770 O.2   404  SER404     -0.2866
    158  CB        68.6420   35.9790   16.9210 C.3   404  SER404      0.2089
    159  OG        67.5050   35.1440   17.0260 O.3   404  SER404     -0.2183
    160  N         70.9710   40.4820   18.2040 N.3   406  LEU406     -0.1245
    161  CA        71.0670   40.6480   19.6470 C.3   406  LEU406      0.1561
    162  C         71.7850   41.9300   20.0200 C.2   406  LEU406      0.2260
    163  O         72.8420   41.9000   20.6440 O.2   406  LEU406     -0.2867
    164  CB        71.7720   39.4380   20.2660 C.3   406  LEU406      0.0270
    165  CG        71.1120   38.1180   19.8700 C.3   406  LEU406      0.0019
    166  CD1       71.6580   36.9550   20.6930 C.3   406  LEU406      0.0001
    167  CD2       69.6110   38.2450   20.0400 C.3   406  LEU406      0.0001
    168  N         59.6800   36.4170   16.8780 N.3   436  TYR436     -0.1227
    169  CA        59.8920   35.4500   17.9360 C.3   436  TYR436      0.1736
    170  C         60.3340   36.2670   19.1450 C.2   436  TYR436      0.2595
    171  O         61.1260   37.2030   19.0080 O.2   436  TYR436     -0.2718
    172  CB        60.9650   34.4360   17.5150 C.3   436  TYR436      0.0548
    173  CG        61.3160   33.4040   18.5700 C.ar  436  TYR436     -0.0200
    174  CD1       60.3420   32.5810   19.1160 C.ar  436  TYR436     -0.0009
    175  CD2       62.6240   33.2520   19.0090 C.ar  436  TYR436     -0.0009
    176  CE1       60.6580   31.6400   20.0850 C.ar  436  TYR436      0.0417
    177  CE2       62.9530   32.3140   19.9710 C.ar  436  TYR436      0.0417
    178  CZ        61.9660   31.5130   20.5080 C.ar  436  TYR436      0.1957
    179  OH        62.2860   30.5800   21.4660 O.3   436  TYR436     -0.2866
    180  N         59.8020   35.9320   20.3160 N.am  437  LEU437     -0.1980
    181  CA        60.2180   36.5730   21.5690 C.3   437  LEU437      0.1596
    182  C         59.7470   38.0190   21.6730 C.2   437  LEU437      0.2287
    183  O         60.1360   38.7530   22.5930 O.2   437  LEU437     -0.2864
    184  CB        61.7400   36.5220   21.7270 C.3   437  LEU437      0.0297
    185  CG        62.3980   35.1410   21.7550 C.3   437  LEU437      0.0022
    186  CD1       63.8840   35.2690   22.0610 C.3   437  LEU437      0.0001
    187  CD2       61.7110   34.2360   22.7650 C.3   437  LEU437      0.0001
@<TRIPOS>BOND
     1   139   138    1
     2   139   140    2
     3   138   137    1
     4   138   141    1
     5   149   150    1
     6   141   142    1
     7    44    43    2
     8    50    51    1
     9   152   151    2
    10    43    42    1
    11   151   150    1
    12   150   153    1
    13   142   143   ar
    14   142   144   ar
    15    51    52    1
    16    51    54    1
    17   143   145   ar
    18    53    52    2
    19   132   131    2
    20   131   130    1
    21    41    42    1
    22    42    45    1
    23    32    31    2
    24   144   146   ar
    25    31    30    1
    26   130   129    1
    27   130   133    1
    28    54    55    1
    29   145   147   ar
    30   154   155    1
    31    45    46    1
    32    29    30    1
    33   146   147   ar
    34   147   148    1
    35   135   133    1
    36    30    33    1
    37   133   134    1
    38    46    47    1
    39    55    56    1
    40   116   117    2
    41   116   115    1
    42   155   156    1
    43   155   158    1
    44   156   157    2
    45    36    38   ar
    46    36    34   ar
    47   115   114    1
    48   115   118    1
    49    38    39   ar
    50   134   136    1
    51    33    34    1
    52   124   125    2
    53   124   123    1
    54   168   169    1
    55   158   159    1
    56    57    56   ar
    57    56    58   ar
    58    47    49   ar
    59    47    48   ar
    60    34    35   ar
    61    28    26    1
    62   172   169    1
    63   172   173    1
    64    39    40    1
    65    39    37   ar
    66   123   126    1
    67   123   122    1
    68   118   119    1
    69   169   170    1
    70    35    37   ar
    71    27    25    1
    72   160   161    1
    73    25    26    1
    74    25    22    1
    75   126   127    1
    76   173   175   ar
    77   173   174   ar
    78   120   119    2
    79   119   121   am
    80   122   128    1
    81   171   170    2
    82   175   177   ar
    83   174   176   ar
    84   170   180   am
    85   102   103    2
    86   102   101    1
    87    22    23    1
    88    22    21    1
    89   161   162    1
    90   161   164    1
    91    23    24    2
    92   127   128    1
    93   165   167    1
    94   165   164    1
    95   165   166    1
    96   177   178   ar
    97     8     6   ar
    98   162   163    2
    99   176   178   ar
   100     7     6   ar
   101   180   181    1
   102   101   104    1
   103   101   100    1
   104   178   179    1
   105     6     5    1
   106   104   105    1
   107    69    67    1
   108   181   182    1
   109   181   184    1
   110    66    67    2
   111    66    65    1
   112   182   183    2
   113   184   185    1
   114   185   186    1
   115   185   187    1
   116    67    68    1
   117   105   106   ar
   118   105   107   ar
   119     5     2    1
   120   106   108   ar
   121    65    64    1
   122   107   110   ar
   123   107   109   ar
   124   110   112   ar
   125   108   109   ar
   126     2     1    1
   127     2     3    1
   128   109   111   ar
   129    85    83   ar
   130    64    63    1
   131   112   113   ar
   132    84    83   ar
   133   111   113   ar
   134    83    82    1
   135     3     4    2
   136     3     9   am
   137    63    60    1
   138    76    74    1
   139     9    10    1
   140    82    81    1
   141    74    75    1
   142    74    71    1
   143    60    61    1
   144    60    59    1
   145    70    61   am
   146    70    71    1
   147    61    62    2
   148    81    78    1
   149    71    72    1
   150    10    13    1
   151    10    11    1
   152    13    14    1
   153    12    11    2
   154    78    77    1
   155    78    79    1
   156    72    73    2
   157    14    15   ar
   158    14    16   ar
   159    98    99   ar
   160    98    96   ar
   161    99    97   ar
   162    15    17   ar
   163    79    80    2
   164    16    18   ar
   165    96    93   ar
   166    97    95   ar
   167    17    19   ar
   168    89    88    2
   169    93    95   ar
   170    93    91   ar
   171    18    19   ar
   172    95    94   ar
   173    87    86    1
   174    87    88    1
   175    87    90    1
   176    19    20    1
   177    91    90    1
   178    91    92   ar
   179    94    92   ar
