@<TRIPOS>MOLECULE
tmp/1w1tB01.pdb
 160 158 0 0 0
SMALL
GASTEIGER

@<TRIPOS>ATOM
      1  N         40.6910   74.8640   43.1520 N.3     8  TYR8       -0.1241
      2  CA        40.8900   76.2070   43.6670 C.3     8  TYR8        0.1605
      3  C         41.7310   77.0780   42.7650 C.2     8  TYR8        0.2264
      4  O         42.7630   76.6450   42.2700 O.2     8  TYR8       -0.2867
      5  CB        41.5890   76.1810   45.0230 C.3     8  TYR8        0.0534
      6  CG        40.6320   76.0350   46.1710 C.ar    8  TYR8       -0.0201
      7  CD1       40.1470   74.7780   46.5500 C.ar    8  TYR8       -0.0009
      8  CD2       40.1540   77.1560   46.8370 C.ar    8  TYR8       -0.0009
      9  CE1       39.2030   74.6490   47.5690 C.ar    8  TYR8        0.0417
     10  CE2       39.2070   77.0360   47.8580 C.ar    8  TYR8        0.0417
     11  CZ        38.7370   75.7920   48.2130 C.ar    8  TYR8        0.1957
     12  OH        37.7750   75.6860   49.1800 O.3     8  TYR8       -0.2866
     13  N         40.9330   84.3310   47.6900 N.3    49  PHE49      -0.1241
     14  CA        39.8970   84.2920   48.7360 C.3    49  PHE49       0.1605
     15  C         39.2530   85.6550   48.9920 C.2    49  PHE49       0.2264
     16  O         39.9170   86.7010   48.8760 O.2    49  PHE49      -0.2867
     17  CB        40.4940   83.9320   50.1030 C.3    49  PHE49       0.0534
     18  CG        40.7210   82.4710   50.3130 C.ar   49  PHE49      -0.0203
     19  CD1       39.6450   81.6170   50.4780 C.ar   49  PHE49      -0.0042
     20  CD2       42.0130   81.9480   50.2930 C.ar   49  PHE49      -0.0042
     21  CE1       39.8520   80.2350   50.6110 C.ar   49  PHE49      -0.0003
     22  CE2       42.2280   80.5670   50.4290 C.ar   49  PHE49      -0.0003
     23  CZ        41.1380   79.7180   50.5840 C.ar   49  PHE49      -0.0000
     24  N         39.4460   80.6580   54.3700 N.3    94  GLY94      -0.1210
     25  CA        40.7340   80.0170   54.1600 C.3    94  GLY94       0.1956
     26  C         41.5020   80.0860   55.4610 C.2    94  GLY94       0.2612
     27  O         41.1350   80.8350   56.3670 O.2    94  GLY94      -0.2717
     28  N         42.5750   79.3120   55.5840 N.am   95  TRP95      -0.1962
     29  CA        43.3660   79.3220   56.8200 C.3    95  TRP95       0.1771
     30  C         43.8320   80.7210   57.3220 C.2    95  TRP95       0.2619
     31  O         43.5450   81.1170   58.4460 O.2    95  TRP95      -0.2715
     32  CB        44.5820   78.4200   56.6390 C.3    95  TRP95       0.0590
     33  CG        45.3740   78.2840   57.8900 C.ar   95  TRP95       0.0006
     34  CD1       46.4990   78.9860   58.2300 C.ar   95  TRP95       0.0946
     35  CD2       45.0580   77.4610   59.0150 C.ar   95  TRP95       0.0152
     36  NE1       46.8980   78.6560   59.4980 N.ar   95  TRP95      -0.2442
     37  CE2       46.0330   77.7230   60.0080 C.ar   95  TRP95       0.0810
     38  CE3       44.0460   76.5360   59.2860 C.ar   95  TRP95       0.0012
     39  CZ2       46.0250   77.0890   61.2580 C.ar   95  TRP95       0.0191
     40  CZ3       44.0340   75.9060   60.5270 C.ar   95  TRP95       0.0001
     41  CH2       45.0240   76.1890   61.5020 C.ar   95  TRP95       0.0015
     42  N         44.5410   81.4630   56.4880 N.am   96  TYR96      -0.1974
     43  CA        45.0650   82.7780   56.8870 C.3    96  TYR96       0.1639
     44  C         44.0290   83.7030   57.5280 C.2    96  TYR96       0.2290
     45  O         44.2410   84.2680   58.6170 O.2    96  TYR96      -0.2864
     46  CB        45.6720   83.4930   55.6780 C.3    96  TYR96       0.0560
     47  CG        46.1970   84.8800   55.9960 C.ar   96  TYR96      -0.0198
     48  CD1       47.3770   85.0490   56.7290 C.ar   96  TYR96      -0.0009
     49  CD2       45.5150   86.0220   55.5700 C.ar   96  TYR96      -0.0009
     50  CE1       47.8670   86.3260   57.0340 C.ar   96  TYR96       0.0417
     51  CE2       45.9920   87.2960   55.8650 C.ar   96  TYR96       0.0417
     52  CZ        47.1670   87.4380   56.5980 C.ar   96  TYR96       0.1957
     53  OH        47.6410   88.6990   56.8970 O.3    96  TYR96      -0.2866
     54  N         35.0590   78.7360   53.6990 N.3   140  ASP140     -0.1239
     55  CA        36.1880   77.9930   54.2540 C.3   140  ASP140      0.1674
     56  C         36.6810   78.4840   55.6160 C.2   140  ASP140      0.2266
     57  O         37.8420   78.9220   55.7640 O.2   140  ASP140     -0.2867
     58  CB        37.3630   78.0060   53.2700 C.3   140  ASP140      0.1410
     59  CG        36.9790   77.4860   51.8960 C.2   140  ASP140      0.3668
     60  OD1       35.8630   76.9350   51.7220 O.co2 140  ASP140     -0.2456
     61  OD2       37.8020   77.6310   50.9810 O.co2 140  ASP140     -0.2456
     62  N         38.0990   77.7690   58.9670 N.3   142  GLU142     -0.1231
     63  CA        38.8660   76.7140   59.6170 C.3   142  GLU142      0.1699
     64  C         39.1800   77.0330   61.0980 C.2   142  GLU142      0.2592
     65  O         40.2560   77.5610   61.3890 O.2   142  GLU142     -0.2718
     66  CB        40.1860   76.5230   58.8690 C.3   142  GLU142      0.0402
     67  CG        39.9930   76.3030   57.3580 C.3   142  GLU142      0.1161
     68  CD        41.2780   75.8460   56.6930 C.2   142  GLU142      0.3649
     69  OE1       41.8010   74.8020   57.1380 O.co2 142  GLU142     -0.2457
     70  OE2       41.7450   76.5200   55.7480 O.co2 142  GLU142     -0.2457
     71  N         38.2960   76.7080   62.0430 N.am  143  TYR143     -0.1976
     72  CA        36.9840   76.0770   61.8560 C.3   143  TYR143      0.1639
     73  C         36.0820   76.5490   62.9910 C.2   143  TYR143      0.2290
     74  O         36.5470   76.8750   64.0870 O.2   143  TYR143     -0.2864
     75  CB        37.0670   74.5320   61.9850 C.3   143  TYR143      0.0560
     76  CG        38.0570   73.8810   61.0720 C.ar  143  TYR143     -0.0198
     77  CD1       39.4130   73.8570   61.3900 C.ar  143  TYR143     -0.0009
     78  CD2       37.6570   73.3930   59.8300 C.ar  143  TYR143     -0.0009
     79  CE1       40.3500   73.3750   60.4750 C.ar  143  TYR143      0.0417
     80  CE2       38.5760   72.9130   58.9200 C.ar  143  TYR143      0.0417
     81  CZ        39.9270   72.9100   59.2450 C.ar  143  TYR143      0.1957
     82  OH        40.8470   72.4870   58.3100 O.3   143  TYR143     -0.2866
     83  N         34.5020   74.1150   52.7770 N.3   182  ALA182     -0.1245
     84  CA        35.7300   73.3080   52.8480 C.3   182  ALA182      0.1562
     85  C         35.6530   72.7950   54.2920 C.2   182  ALA182      0.2260
     86  O         35.5460   73.5960   55.2360 O.2   182  ALA182     -0.2867
     87  CB        37.0000   74.1840   52.6790 C.3   182  ALA182      0.0290
     88  N         39.2480   68.5820   53.3880 N.3   210  MET210     -0.1245
     89  CA        40.6660   68.8820   53.1470 C.3   210  MET210      0.1570
     90  C         41.4810   67.6960   53.6490 C.2   210  MET210      0.2261
     91  O         42.2350   67.7840   54.6070 O.2   210  MET210     -0.2867
     92  CB        41.0480   70.1950   53.8410 C.3   210  MET210      0.0387
     93  CG        40.4580   71.3880   53.1020 C.3   210  MET210      0.0595
     94  SD        40.6190   72.9550   54.0150 S.3   210  MET210     -0.1393
     95  CE        39.3410   72.7650   55.2750 C.3   210  MET210      0.0692
     96  N         44.2110   66.1650   53.3500 N.3   212  TYR212     -0.1227
     97  CA        45.6490   66.2670   53.0730 C.3   212  TYR212      0.1736
     98  C         46.2540   67.1050   54.2150 C.2   212  TYR212      0.2595
     99  O         45.5320   67.5110   55.1310 O.2   212  TYR212     -0.2718
    100  CB        45.9180   66.8680   51.6640 C.3   212  TYR212      0.0548
    101  CG        45.0790   68.0830   51.2920 C.ar  212  TYR212     -0.0200
    102  CD1       45.4590   69.3720   51.6820 C.ar  212  TYR212     -0.0009
    103  CD2       43.8940   67.9320   50.5700 C.ar  212  TYR212     -0.0009
    104  CE1       44.6580   70.4950   51.3460 C.ar  212  TYR212      0.0417
    105  CE2       43.0900   69.0270   50.2380 C.ar  212  TYR212      0.0417
    106  CZ        43.4790   70.3040   50.6240 C.ar  212  TYR212      0.1957
    107  OH        42.6990   71.3650   50.2610 O.3   212  TYR212     -0.2866
    108  N         47.5500   67.3870   54.1770 N.am  213  ASP213     -0.1974
    109  CA        48.1840   68.0790   55.3020 C.3   213  ASP213      0.1709
    110  C         47.9750   67.2390   56.5670 C.2   213  ASP213      0.2293
    111  O         47.8920   67.7690   57.6800 O.2   213  ASP213     -0.2864
    112  CB        47.6180   69.4900   55.5340 C.3   213  ASP213      0.1436
    113  CG        48.1850   70.5050   54.5700 C.2   213  ASP213      0.3671
    114  OD1       49.2410   70.2370   53.9640 O.co2 213  ASP213     -0.2456
    115  OD2       47.5870   71.5830   54.4290 O.co2 213  ASP213     -0.2456
    116  N         50.3560   69.6070   45.6900 N.3   290  TYR290     -0.1241
    117  CA        51.6900   69.9510   46.1900 C.3   290  TYR290      0.1605
    118  C         52.1670   68.8900   47.1680 C.2   290  TYR290      0.2264
    119  O         51.3740   68.1360   47.7160 O.2   290  TYR290     -0.2867
    120  CB        51.6810   71.2950   46.9440 C.3   290  TYR290      0.0534
    121  CG        50.7990   71.2810   48.1650 C.ar  290  TYR290     -0.0201
    122  CD1       51.3030   70.9250   49.4260 C.ar  290  TYR290     -0.0009
    123  CD2       49.4200   71.5420   48.0530 C.ar  290  TYR290     -0.0009
    124  CE1       50.4620   70.8260   50.5430 C.ar  290  TYR290      0.0417
    125  CE2       48.5810   71.4360   49.1540 C.ar  290  TYR290      0.0417
    126  CZ        49.1010   71.0840   50.3930 C.ar  290  TYR290      0.1957
    127  OH        48.2560   71.0070   51.4810 O.3   290  TYR290     -0.2866
    128  N         54.9160   67.9490   50.5940 N.3   292  ARG292     -0.1245
    129  CA        55.5230   68.5280   51.7840 C.3   292  ARG292      0.1563
    130  C         56.8620   67.8350   51.9540 C.2   292  ARG292      0.2260
    131  O         56.9570   66.5930   51.8930 O.2   292  ARG292     -0.2867
    132  CB        54.6440   68.3310   53.0190 C.3   292  ARG292      0.0307
    133  CG        53.4770   69.3040   53.0660 C.3   292  ARG292      0.0489
    134  CD        52.6910   69.1770   54.3690 C.3   292  ARG292      0.2205
    135  NE        51.6910   70.2300   54.5080 N.pl3 292  ARG292     -0.0865
    136  CZ        51.9740   71.4670   54.9150 C.cat 292  ARG292      0.5346
    137  NH1       53.2260   71.7820   55.2170 N.pl3 292  ARG292      0.1354
    138  NH2       51.0100   72.3840   55.0240 N.pl3 292  ARG292      0.1354
    139  N         38.1040   67.4880   45.1050 N.3   399  MET399     -0.1245
    140  CA        38.4360   68.9180   45.2080 C.3   399  MET399      0.1570
    141  C         39.9610   68.9580   45.3130 C.2   399  MET399      0.2261
    142  O         40.5690   68.0220   45.8090 O.2   399  MET399     -0.2867
    143  CB        37.8360   69.5200   46.4830 C.3   399  MET399      0.0387
    144  CG        38.3170   70.9680   46.8420 C.3   399  MET399      0.0595
    145  SD        39.9120   70.9760   47.7060 S.3   399  MET399     -0.1393
    146  CE        39.3650   70.7850   49.4400 C.3   399  MET399      0.0692
    147  N         43.6430   71.6130   45.8970 N.3   401  TRP401     -0.1241
    148  CA        44.3570   72.8510   46.1520 C.3   401  TRP401      0.1605
    149  C         45.7850   72.6340   45.6160 C.2   401  TRP401      0.2264
    150  O         46.5090   71.7990   46.1710 O.2   401  TRP401     -0.2867
    151  CB        44.4390   73.1150   47.6690 C.3   401  TRP401      0.0550
    152  CG        45.2740   74.3400   48.0160 C.ar  401  TRP401      0.0003
    153  CD1       46.6270   74.3880   48.2280 C.ar  401  TRP401      0.0946
    154  CD2       44.8030   75.6910   48.1320 C.ar  401  TRP401      0.0152
    155  NE1       47.0270   75.6930   48.4660 N.ar  401  TRP401     -0.2442
    156  CE2       45.9290   76.5100   48.4120 C.ar  401  TRP401      0.0810
    157  CE3       43.5430   76.2890   48.0270 C.ar  401  TRP401      0.0012
    158  CZ2       45.8290   77.9050   48.5890 C.ar  401  TRP401      0.0191
    159  CZ3       43.4380   77.6750   48.2000 C.ar  401  TRP401      0.0001
    160  CH2       44.5820   78.4680   48.4800 C.ar  401  TRP401      0.0015
@<TRIPOS>BOND
     1     4     3    2
     2     3     2    1
     3     1     2    1
     4     2     5    1
     5     5     6    1
     6   139   140    1
     7   140   141    1
     8   140   143    1
     9   141   142    2
    10   149   148    1
    11   149   150    2
    12   116   117    1
    13   147   148    1
    14   148   151    1
    15     6     7   ar
    16     6     8   ar
    17   117   120    1
    18   117   118    1
    19   143   144    1
    20     7     9   ar
    21     8    10   ar
    22   144   145    1
    23   120   121    1
    24   118   119    2
    25     9    11   ar
    26   151   152    1
    27    13    14    1
    28   145   146    1
    29    10    11   ar
    30   152   154   ar
    31   152   153   ar
    32   157   154   ar
    33   157   159   ar
    34   123   121   ar
    35   123   125   ar
    36   154   156   ar
    37   121   122   ar
    38   159   160   ar
    39    11    12    1
    40   153   155   ar
    41   156   155   ar
    42   156   158   ar
    43   160   158   ar
    44    14    15    1
    45    14    17    1
    46    16    15    2
    47   125   126   ar
    48   122   124   ar
    49    17    18    1
    50   105   103   ar
    51   105   106   ar
    52   107   106    1
    53    20    18   ar
    54    20    22   ar
    55    18    19   ar
    56   126   124   ar
    57   126   127    1
    58    22    23   ar
    59    19    21   ar
    60   103   101   ar
    61    23    21   ar
    62   128   129    1
    63   106   104   ar
    64    61    59   ar
    65   101   100    1
    66   101   102   ar
    67   104   102   ar
    68   100    97    1
    69    60    59   ar
    70   129   130    1
    71   129   132    1
    72   131   130    2
    73    59    58    1
    74    87    84    1
    75    83    84    1
    76    84    85    1
    77   132   133    1
    78   133   134    1
    79    97    96    1
    80    97    98    1
    81    93    92    1
    82    93    94    1
    83    89    88    1
    84    89    90    1
    85    89    92    1
    86    58    55    1
    87    90    91    2
    88    54    55    1
    89   114   113   ar
    90    94    95    1
    91    25    24    1
    92    25    26    1
    93   108    98   am
    94   108   109    1
    95    98    99    2
    96    55    56    1
    97    85    86    2
    98   134   135    1
    99   115   113   ar
   100   135   136    2
   101   113   112    1
   102   136   138    1
   103   136   137    1
   104   109   112    1
   105   109   110    1
   106    26    28   am
   107    26    27    2
   108    49    51   ar
   109    49    47   ar
   110    28    29    1
   111    56    57    2
   112    46    47    1
   113    46    43    1
   114    70    68   ar
   115    51    52   ar
   116    47    48   ar
   117    42    43    1
   118    42    30   am
   119   110   111    2
   120    52    53    1
   121    52    50   ar
   122    32    29    1
   123    32    33    1
   124    68    69   ar
   125    68    67    1
   126    48    50   ar
   127    29    30    1
   128    43    44    1
   129    30    31    2
   130    67    66    1
   131    44    45    2
   132    33    34   ar
   133    33    35   ar
   134    34    36   ar
   135    82    81    1
   136    66    63    1
   137    80    81   ar
   138    80    78   ar
   139    62    63    1
   140    35    38   ar
   141    35    37   ar
   142    81    79   ar
   143    38    40   ar
   144    36    37   ar
   145    63    64    1
   146    78    76   ar
   147    37    39   ar
   148    79    77   ar
   149    40    41   ar
   150    76    77   ar
   151    76    75    1
   152    64    65    2
   153    64    71   am
   154    39    41   ar
   155    72    75    1
   156    72    71    1
   157    72    73    1
   158    73    74    2
