@<TRIPOS>MOLECULE
tmp/1w1vB00.pdb
 161 154 0 0 0
SMALL
GASTEIGER

@<TRIPOS>ATOM
      1  N         40.6220   74.2850   43.1020 N.3     8  TYR8       -0.1241
      2  CA        40.8120   75.6390   43.6110 C.3     8  TYR8        0.1605
      3  C         41.6740   76.4730   42.7110 C.2     8  TYR8        0.2264
      4  O         42.6930   76.0190   42.1770 O.2     8  TYR8       -0.2867
      5  CB        41.5100   75.6560   44.9800 C.3     8  TYR8        0.0534
      6  CG        40.5780   75.4550   46.1250 C.ar    8  TYR8       -0.0201
      7  CD1       40.1580   74.1720   46.5060 C.ar    8  TYR8       -0.0009
      8  CD2       40.0460   76.5550   46.8020 C.ar    8  TYR8       -0.0009
      9  CE1       39.2240   74.0060   47.5320 C.ar    8  TYR8        0.0417
     10  CE2       39.1170   76.3980   47.8170 C.ar    8  TYR8        0.0417
     11  CZ        38.7070   75.1370   48.1790 C.ar    8  TYR8        0.1957
     12  OH        37.7550   75.0110   49.1520 O.3     8  TYR8       -0.2866
     13  N         40.8060   83.6940   47.7550 N.3    49  PHE49      -0.1241
     14  CA        39.7820   83.6070   48.7960 C.3    49  PHE49       0.1605
     15  C         39.1320   84.9580   49.0480 C.2    49  PHE49       0.2264
     16  O         39.7950   86.0120   48.9300 O.2    49  PHE49      -0.2867
     17  CB        40.4090   83.2340   50.1650 C.3    49  PHE49       0.0534
     18  CG        40.6870   81.7820   50.3430 C.ar   49  PHE49      -0.0203
     19  CD1       39.6380   80.8930   50.5260 C.ar   49  PHE49      -0.0042
     20  CD2       41.9910   81.2970   50.2710 C.ar   49  PHE49      -0.0042
     21  CE1       39.8770   79.5010   50.6260 C.ar   49  PHE49      -0.0003
     22  CE2       42.2400   79.9130   50.3660 C.ar   49  PHE49      -0.0003
     23  CZ        41.1640   79.0240   50.5400 C.ar   49  PHE49      -0.0000
     24  N         39.3820   80.0650   54.3270 N.3    94  GLY94      -0.1210
     25  CA        40.7040   79.5070   54.1160 C.3    94  GLY94       0.1956
     26  C         41.4360   79.5870   55.4360 C.2    94  GLY94       0.2611
     27  O         40.9800   80.2850   56.3580 O.2    94  GLY94      -0.2717
     28  N         42.5660   78.8870   55.5640 N.am   95  TRP95      -0.1976
     29  CA        43.3150   78.9000   56.8360 C.3    95  TRP95       0.1640
     30  C         43.7780   80.2870   57.3240 C.2    95  TRP95       0.2290
     31  O         43.5160   80.6810   58.4540 O.2    95  TRP95      -0.2864
     32  CB        44.5380   77.9850   56.7270 C.3    95  TRP95       0.0576
     33  CG        45.3440   77.9360   57.9940 C.ar   95  TRP95       0.0006
     34  CD1       46.4870   78.6310   58.2800 C.ar   95  TRP95       0.0946
     35  CD2       45.0370   77.1700   59.1560 C.ar   95  TRP95       0.0152
     36  NE1       46.9140   78.3350   59.5670 N.ar   95  TRP95      -0.2442
     37  CE2       46.0350   77.4410   60.1190 C.ar   95  TRP95       0.0810
     38  CE3       44.0030   76.2820   59.4810 C.ar   95  TRP95       0.0012
     39  CZ2       46.0320   76.8530   61.3920 C.ar   95  TRP95       0.0191
     40  CZ3       43.9940   75.7070   60.7410 C.ar   95  TRP95       0.0001
     41  CH2       45.0110   75.9960   61.6860 C.ar   95  TRP95       0.0015
     42  N         34.9220   78.1240   53.6740 N.3   140  ASP140     -0.1239
     43  CA        36.0400   77.3530   54.2260 C.3   140  ASP140      0.1674
     44  C         36.5260   77.8810   55.5670 C.2   140  ASP140      0.2266
     45  O         37.6660   78.3250   55.6760 O.2   140  ASP140     -0.2867
     46  CB        37.2290   77.3740   53.2590 C.3   140  ASP140      0.1410
     47  CG        36.8750   76.8760   51.8790 C.2   140  ASP140      0.3668
     48  OD1       35.7820   76.3070   51.6830 O.co2 140  ASP140     -0.2456
     49  OD2       37.6970   77.0570   50.9690 O.co2 140  ASP140     -0.2456
     50  N         37.9850   77.2420   58.9550 N.3   142  GLU142     -0.1245
     51  CA        38.8120   76.1910   59.5200 C.3   142  GLU142      0.1567
     52  C         39.1340   76.4240   61.0200 C.2   142  GLU142      0.2260
     53  O         40.2150   76.9220   61.3480 O.2   142  GLU142     -0.2867
     54  CB        40.1150   76.1100   58.6730 C.3   142  GLU142      0.0388
     55  CG        39.8280   75.7600   57.1780 C.3   142  GLU142      0.1160
     56  CD        41.0620   75.7780   56.2950 C.2   142  GLU142      0.3649
     57  OE1       42.1550   75.4060   56.7600 O.co2 142  GLU142     -0.2457
     58  OE2       40.9190   76.1600   55.1310 O.co2 142  GLU142     -0.2457
     59  N         34.3860   73.5230   52.7780 N.3   182  ALA182     -0.1245
     60  CA        35.5960   72.6960   52.8440 C.3   182  ALA182      0.1562
     61  C         35.5240   72.1470   54.2630 C.2   182  ALA182      0.2260
     62  O         35.3890   72.9230   55.2420 O.2   182  ALA182     -0.2867
     63  CB        36.9120   73.5680   52.6840 C.3   182  ALA182      0.0290
     64  N         39.1740   67.9910   53.3350 N.3   210  MET210     -0.1245
     65  CA        40.5720   68.3040   53.1140 C.3   210  MET210      0.1570
     66  C         41.4060   67.1150   53.5900 C.2   210  MET210      0.2261
     67  O         42.1510   67.1630   54.5630 O.2   210  MET210     -0.2867
     68  CB        40.9140   69.6360   53.8140 C.3   210  MET210      0.0387
     69  CG        39.9800   70.7900   53.4240 C.3   210  MET210      0.0595
     70  SD        40.3460   72.2650   54.4240 S.3   210  MET210     -0.1393
     71  CE        42.1300   72.2070   54.2980 C.3   210  MET210      0.0692
     72  N         44.1490   65.7150   53.2850 N.3   212  TYR212     -0.1227
     73  CA        45.5880   65.8440   53.0370 C.3   212  TYR212      0.1736
     74  C         46.1710   66.6510   54.2000 C.2   212  TYR212      0.2595
     75  O         45.4370   67.0100   55.1330 O.2   212  TYR212     -0.2718
     76  CB        45.8960   66.4570   51.6420 C.3   212  TYR212      0.0548
     77  CG        45.0290   67.6270   51.2570 C.ar  212  TYR212     -0.0200
     78  CD1       45.2510   68.8890   51.8070 C.ar  212  TYR212     -0.0009
     79  CD2       43.9560   67.4560   50.3960 C.ar  212  TYR212     -0.0009
     80  CE1       44.4010   69.9610   51.4970 C.ar  212  TYR212      0.0417
     81  CE2       43.1080   68.5010   50.0760 C.ar  212  TYR212      0.0417
     82  CZ        43.3370   69.7540   50.6230 C.ar  212  TYR212      0.1957
     83  OH        42.5460   70.7990   50.2390 O.3   212  TYR212     -0.2866
     84  N         47.4640   66.9400   54.1830 N.am  213  ASP213     -0.1974
     85  CA        48.0750   67.5870   55.3430 C.3   213  ASP213      0.1709
     86  C         47.8660   66.6830   56.5690 C.2   213  ASP213      0.2293
     87  O         47.7160   67.1760   57.7000 O.2   213  ASP213     -0.2864
     88  CB        47.4480   68.9450   55.6690 C.3   213  ASP213      0.1436
     89  CG        47.9130   70.0330   54.7460 C.2   213  ASP213      0.3671
     90  OD1       48.8690   69.7990   53.9670 O.co2 213  ASP213     -0.2456
     91  OD2       47.3200   71.1180   54.8160 O.co2 213  ASP213     -0.2456
     92  N         50.2650   69.0940   45.6870 N.3   290  TYR290     -0.1241
     93  CA        51.5640   69.4530   46.2260 C.3   290  TYR290      0.1605
     94  C         52.0500   68.3810   47.1880 C.2   290  TYR290      0.2264
     95  O         51.2640   67.5940   47.7310 O.2   290  TYR290     -0.2867
     96  CB        51.5070   70.7720   46.9890 C.3   290  TYR290      0.0534
     97  CG        50.6060   70.7130   48.1940 C.ar  290  TYR290     -0.0201
     98  CD1       51.0950   70.3100   49.4520 C.ar  290  TYR290     -0.0009
     99  CD2       49.2580   71.0130   48.0780 C.ar  290  TYR290     -0.0009
    100  CE1       50.2530   70.2050   50.5660 C.ar  290  TYR290      0.0417
    101  CE2       48.4030   70.9030   49.1820 C.ar  290  TYR290      0.0417
    102  CZ        48.9020   70.5040   50.4110 C.ar  290  TYR290      0.1957
    103  OH        48.0400   70.3980   51.4810 O.3   290  TYR290     -0.2866
    104  N         54.8560   67.4010   50.5780 N.3   292  ARG292     -0.1245
    105  CA        55.4870   67.9810   51.7510 C.3   292  ARG292      0.1563
    106  C         56.8220   67.2540   51.9110 C.2   292  ARG292      0.2260
    107  O         56.8860   66.0250   51.7860 O.2   292  ARG292     -0.2867
    108  CB        54.5930   67.8030   52.9870 C.3   292  ARG292      0.0307
    109  CG        53.3530   68.7170   52.9350 C.3   292  ARG292      0.0489
    110  CD        52.6090   68.7420   54.2650 C.3   292  ARG292      0.2205
    111  NE        51.5630   69.7680   54.2720 N.pl3 292  ARG292     -0.0865
    112  CZ        51.7670   71.0310   54.6360 C.cat 292  ARG292      0.5346
    113  NH1       52.9760   71.4130   55.0280 N.pl3 292  ARG292      0.1354
    114  NH2       50.7660   71.9140   54.6120 N.pl3 292  ARG292      0.1354
    115  N         55.8340   78.5040   61.1590 N.3   314  ASP314     -0.1239
    116  CA        55.4110   79.1830   59.9540 C.3   314  ASP314      0.1674
    117  C         55.4420   80.6570   60.3130 C.2   314  ASP314      0.2266
    118  O         54.8910   81.0670   61.3410 O.2   314  ASP314     -0.2867
    119  CB        54.0030   78.7620   59.5350 C.3   314  ASP314      0.1410
    120  CG        54.0020   77.5220   58.6620 C.2   314  ASP314      0.3668
    121  OD1       54.1490   76.4060   59.1990 O.co2 314  ASP314     -0.2456
    122  OD2       53.8670   77.6680   57.4300 O.co2 314  ASP314     -0.2456
    123  N         57.3940   72.5310   51.2370 N.3   337  ILE337     -0.1245
    124  CA        56.2460   72.3290   50.3610 C.3   337  ILE337      0.1561
    125  C         56.6490   72.5420   48.9100 C.2   337  ILE337      0.2260
    126  O         57.3750   73.4840   48.5970 O.2   337  ILE337     -0.2867
    127  CB        55.0840   73.2920   50.7400 C.3   337  ILE337      0.0252
    128  CG1       53.9600   73.1690   49.7140 C.3   337  ILE337      0.0019
    129  CG2       55.5660   74.7230   50.7820 C.3   337  ILE337      0.0019
    130  CD1       53.5300   71.7810   49.5410 C.3   337  ILE337      0.0001
    131  N         38.0620   66.8680   45.0420 N.3   399  MET399     -0.1245
    132  CA        38.3640   68.3040   45.1300 C.3   399  MET399      0.1570
    133  C         39.8600   68.3720   45.2160 C.2   399  MET399      0.2261
    134  O         40.4860   67.4370   45.7040 O.2   399  MET399     -0.2867
    135  CB        37.7580   68.8990   46.4090 C.3   399  MET399      0.0387
    136  CG        38.2200   70.3390   46.7270 C.3   399  MET399      0.0595
    137  SD        39.7960   70.3600   47.6150 S.3   399  MET399     -0.1393
    138  CE        39.2290   70.2200   49.3570 C.3   399  MET399      0.0692
    139  N         43.5840   70.9570   45.7720 N.3   401  TRP401     -0.1241
    140  CA        44.2670   72.2110   46.0220 C.3   401  TRP401      0.1605
    141  C         45.6780   72.0400   45.4790 C.2   401  TRP401      0.2264
    142  O         46.4160   71.1950   45.9960 O.2   401  TRP401     -0.2867
    143  CB        44.3320   72.4910   47.5230 C.3   401  TRP401      0.0550
    144  CG        45.1920   73.7080   47.8700 C.ar  401  TRP401      0.0003
    145  CD1       46.5470   73.7380   48.0500 C.ar  401  TRP401      0.0946
    146  CD2       44.7390   75.0560   48.0260 C.ar  401  TRP401      0.0152
    147  NE1       46.9740   75.0290   48.3120 N.ar  401  TRP401     -0.2442
    148  CE2       45.8770   75.8550   48.3010 C.ar  401  TRP401      0.0810
    149  CE3       43.4770   75.6690   47.9600 C.ar  401  TRP401      0.0012
    150  CZ2       45.7900   77.2380   48.5090 C.ar  401  TRP401      0.0191
    151  CZ3       43.3840   77.0280   48.1650 C.ar  401  TRP401      0.0001
    152  CH2       44.5350   77.8090   48.4400 C.ar  401  TRP401      0.0015
    153  N         49.3020   74.2100   40.8200 N.3   405  GLN405     -0.1245
    154  CA        50.3690   73.2630   41.1160 C.3   405  GLN405      0.1566
    155  C         50.4190   72.0490   40.1960 C.2   405  GLN405      0.2260
    156  O         51.3590   71.2410   40.3050 O.2   405  GLN405     -0.2867
    157  CB        50.2920   72.8300   42.6000 C.3   405  GLN405      0.0367
    158  CG        50.3370   74.0220   43.5580 C.3   405  GLN405      0.0905
    159  CD        49.9370   73.6640   44.9890 C.2   405  GLN405      0.2608
    160  OE1       48.9670   72.9370   45.2090 O.2   405  GLN405     -0.2717
    161  NE2       50.6680   74.2030   45.9650 N.am  405  GLN405     -0.0878
@<TRIPOS>BOND
     1   155   156    2
     2   155   154    1
     3   153   154    1
     4   154   157    1
     5     4     3    2
     6   157   158    1
     7     3     2    1
     8     1     2    1
     9   158   159    1
    10     2     5    1
    11     5     6    1
    12   159   160    2
    13   159   161   am
    14   131   132    1
    15   132   133    1
    16   132   135    1
    17   133   134    2
    18   141   142    2
    19   141   140    1
    20    92    93    1
    21   139   140    1
    22   140   143    1
    23     6     7   ar
    24     6     8   ar
    25    93    96    1
    26    93    94    1
    27   135   136    1
    28     7     9   ar
    29   136   137    1
    30     8    10   ar
    31    96    97    1
    32    94    95    2
    33   143   144    1
    34     9    11   ar
    35   137   138    1
    36    13    14    1
    37    10    11   ar
    38   144   146   ar
    39   144   145   ar
    40   149   146   ar
    41   149   151   ar
    42   146   148   ar
    43   145   147   ar
    44    99    97   ar
    45    99   101   ar
    46   151   152   ar
    47    11    12    1
    48    97    98   ar
    49   148   147   ar
    50   148   150   ar
    51   152   150   ar
    52   126   125    2
    53    14    15    1
    54    14    17    1
    55   125   124    1
    56    16    15    2
    57   101   102   ar
    58    98   100   ar
    59   130   128    1
    60   128   127    1
    61    81    79   ar
    62    81    82   ar
    63    17    18    1
    64    83    82    1
    65    20    18   ar
    66    20    22   ar
    67    18    19   ar
    68   124   127    1
    69   124   123    1
    70    22    23   ar
    71    79    77   ar
    72   102   100   ar
    73   102   103    1
    74    19    21   ar
    75    23    21   ar
    76   104   105    1
    77    82    80   ar
    78   127   129    1
    79    49    47   ar
    80    77    76    1
    81    77    78   ar
    82    80    78   ar
    83    76    73    1
    84    48    47   ar
    85   105   106    1
    86   105   108    1
    87   107   106    2
    88    47    46    1
    89    63    60    1
    90    59    60    1
    91    60    61    1
    92   109   108    1
    93   109   110    1
    94    73    72    1
    95    73    74    1
    96    65    64    1
    97    65    66    1
    98    65    68    1
    99    46    43    1
   100    69    68    1
   101    69    70    1
   102    66    67    2
   103    42    43    1
   104    90    89   ar
   105    25    24    1
   106    25    26    1
   107    84    74   am
   108    84    85    1
   109    74    75    2
   110    43    44    1
   111    61    62    2
   112   110   111    1
   113   111   112    2
   114    71    70    1
   115   114   112    1
   116   112   113    1
   117    89    91   ar
   118    89    88    1
   119    58    56   ar
   120    85    88    1
   121    85    86    1
   122    26    28   am
   123    26    27    2
   124    28    29    1
   125    44    45    2
   126    56    57   ar
   127    56    55    1
   128    86    87    2
   129    32    29    1
   130    32    33    1
   131    29    30    1
   132    55    54    1
   133    30    31    2
   134   122   120   ar
   135    33    34   ar
   136    33    35   ar
   137    34    36   ar
   138   120   121   ar
   139   120   119    1
   140    54    51    1
   141    50    51    1
   142    35    38   ar
   143    35    37   ar
   144    38    40   ar
   145    51    52    1
   146   119   116    1
   147    36    37   ar
   148   116   117    1
   149   116   115    1
   150    37    39   ar
   151   117   118    2
   152    40    41   ar
   153    52    53    2
   154    39    41   ar
