@<TRIPOS>MOLECULE
tmp/1w1wB01.pdb
 160 152 0 0 0
SMALL
GASTEIGER

@<TRIPOS>ATOM
      1  N        -96.9010   55.0260   40.5500 N.3    12  LYS12      -0.1231
      2  CA       -95.7870   55.6840   41.2120 C.3    12  LYS12       0.1693
      3  C        -96.3670   56.5770   42.2690 C.2    12  LYS12       0.2592
      4  O        -96.3160   56.2670   43.4500 O.2    12  LYS12      -0.2718
      5  CB       -94.9130   56.4790   40.2270 C.3    12  LYS12       0.0285
      6  CG       -94.0860   55.5950   39.2920 C.3    12  LYS12       0.0035
      7  CD       -93.0550   56.3780   38.4820 C.3    12  LYS12       0.0206
      8  CE       -91.9360   56.9270   39.3650 C.3    12  LYS12       0.1093
      9  NZ       -90.8760   57.6380   38.5730 N.3    12  LYS12      -0.1314
     10  N        -96.9490   57.6790   41.8350 N.am   13  SER13      -0.1952
     11  CA       -97.5480   58.6150   42.7480 C.3    13  SER13       0.1924
     12  C        -99.0380   58.4320   42.5430 C.2    13  SER13       0.2314
     13  O        -99.8500   59.1220   43.1580 O.2    13  SER13      -0.2863
     14  CB       -97.1260   60.0270   42.3710 C.3    13  SER13       0.2116
     15  OG       -97.5220   60.3030   41.0440 O.3    13  SER13      -0.2180
     16  N        -95.8550   71.8180   39.2960 N.3    34  ASN34      -0.1225
     17  CA       -94.6190   71.1060   39.5950 C.3    34  ASN34       0.1785
     18  C        -94.8760   70.0500   40.6780 C.2    34  ASN34       0.2598
     19  O        -95.6030   70.2860   41.6500 O.2    34  ASN34      -0.2718
     20  CB       -93.5480   72.1000   40.0890 C.3    34  ASN34       0.1169
     21  CG       -92.8440   72.8390   38.9450 C.2    34  ASN34       0.2627
     22  OD1      -92.1420   73.8300   39.1630 O.2    34  ASN34      -0.2716
     23  ND2      -93.0160   72.3470   37.7300 N.am   34  ASN34      -0.0877
     24  N        -94.2900   68.8780   40.4970 N.am   35  GLY35      -0.1942
     25  CA       -94.4480   67.8150   41.4660 C.3    35  GLY35       0.2014
     26  C        -95.7790   67.1000   41.4490 C.2    35  GLY35       0.2640
     27  O        -95.9480   66.1590   42.2240 O.2    35  GLY35      -0.2714
     28  N        -96.7060   67.4930   40.5750 N.am   36  SER36      -0.1935
     29  CA       -98.0170   66.8480   40.5780 C.3    36  SER36       0.2055
     30  C        -98.0090   65.4170   40.0560 C.2    36  SER36       0.2644
     31  O        -98.8660   64.6200   40.4330 O.2    36  SER36      -0.2714
     32  CB       -99.0710   67.7030   39.8360 C.3    36  SER36       0.2130
     33  OG       -98.9320   67.6720   38.4300 O.3    36  SER36      -0.2179
     34  N        -97.0490   65.0740   39.2060 N.am   37  GLY37      -0.1939
     35  CA       -96.9900   63.7080   38.7220 C.3    37  GLY37       0.2014
     36  C        -97.1520   63.5040   37.2310 C.2    37  GLY37       0.2639
     37  O        -97.5820   62.4340   36.7840 O.2    37  GLY37      -0.2714
     38  N        -96.7910   64.5190   36.4530 N.am   38  LYS38      -0.1963
     39  CA       -96.9150   64.4340   35.0040 C.3    38  LYS38       0.1728
     40  C        -95.8940   63.4840   34.3850 C.2    38  LYS38       0.2617
     41  O        -96.2370   62.6340   33.5550 O.2    38  LYS38      -0.2715
     42  CB       -96.7840   65.8290   34.3910 C.3    38  LYS38       0.0311
     43  CG       -97.8830   66.7540   34.8710 C.3    38  LYS38       0.0038
     44  CD       -97.8720   68.0780   34.1650 C.3    38  LYS38       0.0206
     45  CE       -96.6100   68.8580   34.4790 C.3    38  LYS38       0.1093
     46  NZ       -96.3020   68.9880   35.9300 N.3    38  LYS38      -0.1314
     47  N        -94.6390   63.6200   34.7890 N.am   39  SER39      -0.1936
     48  CA       -93.6120   62.7600   34.2450 C.3    39  SER39       0.2055
     49  C        -93.8410   61.3170   34.6760 C.2    39  SER39       0.2643
     50  O        -93.5260   60.4000   33.9210 O.2    39  SER39      -0.2714
     51  CB       -92.2360   63.2550   34.6700 C.3    39  SER39       0.2130
     52  OG       -91.9320   64.4770   34.0150 O.3    39  SER39      -0.2179
     53  N        -94.3950   61.1030   35.8740 N.am   40  ASN40      -0.1971
     54  CA       -94.6830   59.7420   36.3440 C.3    40  ASN40       0.1688
     55  C        -95.6470   59.1370   35.3380 C.2    40  ASN40       0.2292
     56  O        -95.5930   57.9560   35.0540 O.2    40  ASN40      -0.2864
     57  CB       -95.3330   59.7460   37.7310 C.3    40  ASN40       0.1181
     58  CG       -94.3450   60.0610   38.8400 C.2    40  ASN40       0.2629
     59  OD1      -93.2070   59.6020   38.8080 O.2    40  ASN40      -0.2716
     60  ND2      -94.7780   60.8300   39.8350 N.am   40  ASN40      -0.0877
     61  N        -88.9540   50.3510   42.5090 N.3    56  ASP56      -0.1225
     62  CA       -89.0440   51.7720   42.8570 C.3    56  ASP56       0.1805
     63  C        -90.1850   52.4640   42.1260 C.2    56  ASP56       0.2598
     64  O        -90.3930   53.6690   42.2780 O.2    56  ASP56      -0.2718
     65  CB       -87.7200   52.4990   42.5810 C.3    56  ASP56       0.1424
     66  CG       -86.6630   52.2220   43.6510 C.2    56  ASP56       0.3668
     67  OD1      -85.7360   53.0590   43.7980 O.co2  56  ASP56      -0.2456
     68  OD2      -86.7630   51.1710   44.3360 O.co2  56  ASP56      -0.2456
     69  N        -90.8940   51.6960   41.3050 N.am   57  LEU57      -0.1966
     70  CA       -92.0650   52.2040   40.6190 C.3    57  LEU57       0.1728
     71  C        -93.0770   51.9260   41.7420 C.2    57  LEU57       0.2616
     72  O        -93.0600   52.6540   42.7250 O.2    57  LEU57      -0.2715
     73  CB       -92.3040   51.4040   39.3400 C.3    57  LEU57       0.0311
     74  CG       -91.0650   51.4410   38.4140 C.3    57  LEU57       0.0022
     75  CD1      -91.3110   50.6140   37.1730 C.3    57  LEU57       0.0001
     76  CD2      -90.7340   52.8650   38.0150 C.3    57  LEU57       0.0001
     77  N        -93.9150   50.8950   41.6590 N.am   58  ILE58      -0.1963
     78  CA       -94.8460   50.5720   42.7690 C.3    58  ILE58       0.1727
     79  C        -95.0720   51.6680   43.8470 C.2    58  ILE58       0.2616
     80  O        -94.1550   52.0010   44.6170 O.2    58  ILE58      -0.2715
     81  CB       -94.3600   49.3310   43.5590 C.3    58  ILE58       0.0290
     82  CG1      -94.0340   48.1820   42.6070 C.3    58  ILE58       0.0022
     83  CG2      -95.4240   48.9170   44.5760 C.3    58  ILE58       0.0023
     84  CD1      -95.1480   47.2200   42.4040 C.3    58  ILE58       0.0001
     85  N        -96.3000   52.1810   43.9350 N.am   59  TYR59      -0.1960
     86  CA       -96.6440   53.2200   44.9070 C.3    59  TYR59       0.1771
     87  C        -96.0770   53.0030   46.3120 C.2    59  TYR59       0.2619
     88  O        -95.8490   51.8720   46.7350 O.2    59  TYR59      -0.2715
     89  CB       -98.1610   53.3580   45.0140 C.3    59  TYR59       0.0574
     90  CG       -98.6030   54.3830   46.0450 C.ar   59  TYR59      -0.0198
     91  CD1      -98.5670   55.7560   45.7700 C.ar   59  TYR59      -0.0009
     92  CD2      -99.0520   53.9780   47.3050 C.ar   59  TYR59      -0.0009
     93  CE1      -98.9730   56.6930   46.7260 C.ar   59  TYR59       0.0417
     94  CE2      -99.4550   54.9090   48.2620 C.ar   59  TYR59       0.0417
     95  CZ       -99.4170   56.2550   47.9630 C.ar   59  TYR59       0.1957
     96  OH       -99.8600   57.1460   48.9030 O.3    59  TYR59      -0.2866
     97  N        -95.8750   54.1070   47.0330 N.am   60  ARG60      -0.1977
     98  CA       -95.3410   54.0930   48.4050 C.3    60  ARG60       0.1597
     99  C        -96.0480   55.1060   49.3100 C.2    60  ARG60       0.2287
    100  O        -95.9790   56.3170   49.0680 O.2    60  ARG60      -0.2864
    101  CB       -93.8480   54.4140   48.3930 C.3    60  ARG60       0.0334
    102  CG       -92.9770   53.2660   47.9360 C.3    60  ARG60       0.0492
    103  CD       -92.4700   52.4940   49.1280 C.3    60  ARG60       0.2205
    104  NE       -91.0370   52.2180   49.0230 N.pl3  60  ARG60      -0.0865
    105  CZ       -90.0960   53.1380   48.7950 C.cat  60  ARG60       0.5346
    106  NH1      -88.8150   52.7780   48.7260 N.pl3  60  ARG60       0.1354
    107  NH2      -90.4250   54.4160   48.6200 N.pl3  60  ARG60       0.1354
    108  N        -88.0780   64.1790   30.1010 N.3   124  GLN124     -0.1245
    109  CA       -87.7770   65.4870   30.6870 C.3   124  GLN124      0.1566
    110  C        -86.2750   65.7700   30.7830 C.2   124  GLN124      0.2260
    111  O        -85.5050   64.9760   31.3180 O.2   124  GLN124     -0.2867
    112  CB       -88.4510   65.6000   32.0710 C.3   124  GLN124      0.0367
    113  CG       -88.0130   66.7700   32.9480 C.3   124  GLN124      0.0905
    114  CD       -89.1620   67.3680   33.7450 C.2   124  GLN124      0.2608
    115  OE1      -90.1560   66.6950   34.0310 O.2   124  GLN124     -0.2717
    116  NE2      -89.0270   68.6420   34.1120 N.am  124  GLN124     -0.0878
    117  N        -90.9560   67.9670   28.8650 N.3   262  GLU262     -0.1245
    118  CA       -90.8790   69.4170   28.7060 C.3   262  GLU262      0.1567
    119  C        -90.0010   69.9040   27.5720 C.2   262  GLU262      0.2260
    120  O        -89.1090   70.7140   27.7850 O.2   262  GLU262     -0.2867
    121  CB       -90.4320   70.0360   30.0180 C.3   262  GLU262      0.0388
    122  CG       -91.3040   69.6300   31.1750 C.3   262  GLU262      0.1160
    123  CD       -92.1560   70.7670   31.6830 C.2   262  GLU262      0.3649
    124  OE1      -93.0070   71.2800   30.9130 O.co2 262  GLU262     -0.2457
    125  OE2      -91.9670   71.1510   32.8630 O.co2 262  GLU262     -0.2457
    126  N        -96.2080   67.1470   27.5010 N.3   292  ILE292     -0.1245
    127  CA       -96.2530   67.6030   28.8880 C.3   292  ILE292      0.1561
    128  C        -95.6410   68.9850   28.8650 C.2   292  ILE292      0.2260
    129  O        -94.4500   69.1200   28.6110 O.2   292  ILE292     -0.2867
    130  CB       -95.4010   66.7280   29.8260 C.3   292  ILE292      0.0252
    131  CG1      -95.9670   65.3080   29.8800 C.3   292  ILE292      0.0019
    132  CG2      -95.3730   67.3560   31.2220 C.3   292  ILE292      0.0019
    133  CD1      -95.0910   64.3450   30.6350 C.3   292  ILE292      0.0001
    134  N        -95.6290   73.1400   30.6800 N.3   294  LEU294     -0.1245
    135  CA       -96.0690   74.0240   31.7500 C.3   294  LEU294      0.1561
    136  C        -96.5700   75.3260   31.1290 C.2   294  LEU294      0.2260
    137  O        -97.1960   76.1410   31.8080 O.2   294  LEU294     -0.2867
    138  CB       -94.9210   74.3510   32.6900 C.3   294  LEU294      0.0270
    139  CG       -94.3730   73.2440   33.5640 C.3   294  LEU294      0.0019
    140  CD1      -93.1210   73.7340   34.2750 C.3   294  LEU294      0.0001
    141  CD2      -95.4370   72.8260   34.5500 C.3   294  LEU294      0.0001
    142  N       -102.3290   67.0060   42.7810 N.3   310  ARG310     -0.1245
    143  CA      -102.0840   66.2010   43.9660 C.3   310  ARG310      0.1563
    144  C       -103.2850   66.3110   44.8980 C.2   310  ARG310      0.2260
    145  O       -104.0690   67.2570   44.8160 O.2   310  ARG310     -0.2867
    146  CB      -100.8250   66.6700   44.7010 C.3   310  ARG310      0.0307
    147  CG       -99.5070   66.2100   44.0810 C.3   310  ARG310      0.0489
    148  CD       -99.3850   64.6890   44.1030 C.3   310  ARG310      0.2205
    149  NE       -98.5470   64.1330   45.1740 N.pl3 310  ARG310     -0.0865
    150  CZ       -98.5770   64.5000   46.4550 C.cat 310  ARG310      0.5346
    151  NH1      -97.7740   63.8990   47.3220 N.pl3 310  ARG310      0.1354
    152  NH2      -99.3770   65.4790   46.8750 N.pl3 310  ARG310      0.1354
    153  N       -102.3260   61.5380   49.5950 N.3   315  ASN315     -0.1240
    154  CA      -100.9560   61.4170   49.0770 C.3   315  ASN315      0.1653
    155  C       -100.9090   60.6420   47.7620 C.2   315  ASN315      0.2266
    156  O       -100.2960   59.5830   47.6690 O.2   315  ASN315     -0.2867
    157  CB      -100.0350   60.7440   50.0960 C.3   315  ASN315      0.1155
    158  CG       -98.6130   60.5700   49.5680 C.2   315  ASN315      0.2627
    159  OD1      -98.0400   61.4940   49.0050 O.2   315  ASN315     -0.2716
    160  ND2      -98.0420   59.3850   49.7550 N.am  315  ASN315     -0.0877
@<TRIPOS>BOND
     1   126   127    1
     2   119   120    2
     3   119   118    1
     4   129   128    2
     5   118   117    1
     6   118   121    1
     7   128   127    1
     8   127   130    1
     9   130   131    1
    10   130   132    1
    11   131   133    1
    12   121   122    1
    13   108   109    1
    14   134   135    1
    15   109   110    1
    16   109   112    1
    17   110   111    2
    18   124   123   ar
    19   136   135    1
    20   136   137    2
    21   122   123    1
    22   123   125   ar
    23   135   138    1
    24   112   113    1
    25   138   139    1
    26   113   114    1
    27    41    40    2
    28   139   140    1
    29   139   141    1
    30   114   115    2
    31   114   116   am
    32    50    49    2
    33    52    51    1
    34    44    45    1
    35    44    43    1
    36    48    51    1
    37    48    49    1
    38    48    47    1
    39    40    47   am
    40    40    39    1
    41    42    43    1
    42    42    39    1
    43    45    46    1
    44    49    53   am
    45    39    38    1
    46    56    55    2
    47    55    54    1
    48    53    54    1
    49    54    57    1
    50    38    36   am
    51    37    36    2
    52    75    74    1
    53    36    35    1
    54    23    21   am
    55    57    58    1
    56    76    74    1
    57    74    73    1
    58    33    32    1
    59     7     6    1
    60     7     8    1
    61     9     8    1
    62    35    34    1
    63    59    58    2
    64    58    60   am
    65    21    22    2
    66    21    20    1
    67    34    30   am
    68     6     5    1
    69    16    17    1
    70    73    70    1
    71    17    20    1
    72    17    18    1
    73    32    29    1
    74    30    31    2
    75    30    29    1
    76     5     2    1
    77    24    18   am
    78    24    25    1
    79     1     2    1
    80    28    29    1
    81    28    26   am
    82    70    69    1
    83    70    71    1
    84    18    19    2
    85    15    14    1
    86     2     3    1
    87    69    63   am
    88    26    25    1
    89    26    27    2
    90    77    71   am
    91    77    78    1
    92    71    72    2
    93    10     3   am
    94    10    11    1
    95    63    64    2
    96    63    62    1
    97     3     4    2
    98    14    11    1
    99    84    82    1
   100    61    62    1
   101    12    11    1
   102    12    13    2
   103    65    62    1
   104    65    66    1
   105    82    81    1
   106    78    81    1
   107    78    79    1
   108   142   143    1
   109    81    83    1
   110    66    67   ar
   111    66    68   ar
   112    79    85   am
   113    79    80    2
   114    85    86    1
   115   143   146    1
   116   143   144    1
   117   147   148    1
   118   147   146    1
   119   148   149    1
   120   145   144    2
   121    86    89    1
   122    86    87    1
   123    89    90    1
   124   149   150    2
   125    91    90   ar
   126    91    93   ar
   127    90    92   ar
   128    87    88    2
   129    87    97   am
   130   150   152    1
   131   150   151    1
   132    93    95   ar
   133    97    98    1
   134    92    94   ar
   135   156   155    2
   136   155   154    1
   137   102   101    1
   138   102   103    1
   139    95    94   ar
   140    95    96    1
   141   101    98    1
   142    98    99    1
   143   107   105    1
   144   106   105    1
   145   105   104    2
   146   159   158    2
   147   104   103    1
   148   100    99    2
   149   154   153    1
   150   154   157    1
   151   158   160   am
   152   158   157    1
