@<TRIPOS>MOLECULE
tmp/1w1wB00.pdb
 94 92 0 0 0
SMALL
GASTEIGER

@<TRIPOS>ATOM
      1  N        -79.8250   78.1440   12.3050 N.3   222  PRO222     -0.2116
      2  CA       -81.0640   78.9030   12.4850 C.3   222  PRO222      0.1372
      3  C        -81.1190   79.9710   11.4090 C.2   222  PRO222      0.2244
      4  O        -80.0810   80.3890   10.8990 O.2   222  PRO222     -0.2868
      5  CB       -80.9410   79.4440   13.9080 C.3   222  PRO222      0.0268
      6  CG       -79.4840   79.4620   14.1560 C.3   222  PRO222      0.0207
      7  CD       -78.9870   78.2110   13.5090 C.3   222  PRO222      0.0892
      8  N        -79.1300   83.6590   10.9060 N.3   225  LYS225     -0.1231
      9  CA       -77.7470   83.4910   11.3170 C.3   225  LYS225      0.1693
     10  C        -76.9700   82.7170   10.2840 C.2   225  LYS225      0.2592
     11  O        -77.4580   82.4810    9.1790 O.2   225  LYS225     -0.2718
     12  CB       -77.6760   82.7720   12.6590 C.3   225  LYS225      0.0285
     13  CG       -78.4310   83.4910   13.7580 C.3   225  LYS225      0.0035
     14  CD       -78.0480   82.9800   15.1250 C.3   225  LYS225      0.0206
     15  CE       -78.9180   83.5930   16.1960 C.3   225  LYS225      0.1093
     16  NZ       -78.9090   85.0670   16.0940 N.3   225  LYS225     -0.1314
     17  N        -75.7510   82.3250   10.6400 N.am  226  ARG226     -0.1966
     18  CA       -74.9200   81.5720    9.7160 C.3   226  ARG226      0.1729
     19  C        -73.7370   80.9000   10.4050 C.2   226  ARG226      0.2616
     20  O        -72.6690   81.4840   10.5400 O.2   226  ARG226     -0.2715
     21  CB       -74.4380   82.4910    8.5950 C.3   226  ARG226      0.0348
     22  CG       -74.3600   81.7950    7.2480 C.3   226  ARG226      0.0492
     23  CD       -74.2180   82.7960    6.1070 C.3   226  ARG226      0.2205
     24  NE       -74.1980   82.1250    4.8090 N.pl3 226  ARG226     -0.0865
     25  CZ       -74.1020   82.7520    3.6380 C.cat 226  ARG226      0.5346
     26  NH1      -74.0920   82.0530    2.5050 N.pl3 226  ARG226      0.1354
     27  NH2      -74.0170   84.0780    3.5980 N.pl3 226  ARG226      0.1354
     28  N        -73.9610   79.6640   10.8410 N.am  227  PHE227     -0.1974
     29  CA       -72.9740   78.8290   11.5210 C.3   227  PHE227      0.1639
     30  C        -73.5030   77.4210   11.3080 C.2   227  PHE227      0.2290
     31  O        -74.5610   77.2570   10.7100 O.2   227  PHE227     -0.2864
     32  CB       -72.9280   79.1510   13.0200 C.3   227  PHE227      0.0560
     33  CG       -71.7770   80.0410   13.4230 C.ar  227  PHE227     -0.0200
     34  CD1      -71.8750   80.8660   14.5460 C.ar  227  PHE227     -0.0042
     35  CD2      -70.5920   80.0530   12.6830 C.ar  227  PHE227     -0.0042
     36  CE1      -70.8080   81.6960   14.9260 C.ar  227  PHE227     -0.0003
     37  CE2      -69.5210   80.8750   13.0530 C.ar  227  PHE227     -0.0003
     38  CZ       -69.6310   81.7010   14.1800 C.ar  227  PHE227     -0.0000
     39  N        -72.2710   76.1960   18.5270 N.3   232  TYR232     -0.1227
     40  CA       -72.6350   77.6030   18.4700 C.3   232  TYR232      0.1736
     41  C        -74.1110   77.9180   18.7510 C.2   232  TYR232      0.2595
     42  O        -74.4490   79.0310   19.1410 O.2   232  TYR232     -0.2718
     43  CB       -72.1960   78.1740   17.1000 C.3   232  TYR232      0.0548
     44  CG       -70.6820   78.1320   16.8760 C.ar  232  TYR232     -0.0200
     45  CD1      -69.9790   76.9140   16.8590 C.ar  232  TYR232     -0.0009
     46  CD2      -69.9440   79.3120   16.7510 C.ar  232  TYR232     -0.0009
     47  CE1      -68.5770   76.8810   16.7350 C.ar  232  TYR232      0.0417
     48  CE2      -68.5450   79.2930   16.6250 C.ar  232  TYR232      0.0417
     49  CZ       -67.8680   78.0760   16.6230 C.ar  232  TYR232      0.1957
     50  OH       -66.4880   78.0650   16.5410 O.3   232  TYR232     -0.2866
     51  N        -74.9840   76.9420   18.5630 N.am  233  LEU233     -0.1966
     52  CA       -76.3950   77.1570   18.7980 C.3   233  LEU233      0.1728
     53  C        -76.6750   77.3920   20.2750 C.2   233  LEU233      0.2617
     54  O        -75.9820   76.8610   21.1420 O.2   233  LEU233     -0.2715
     55  CB       -77.1960   75.9550   18.3050 C.3   233  LEU233      0.0311
     56  CG       -77.0910   75.6500   16.8150 C.3   233  LEU233      0.0022
     57  CD1      -78.0580   74.5450   16.4450 C.3   233  LEU233      0.0001
     58  CD2      -77.4110   76.8850   16.0370 C.3   233  LEU233      0.0001
     59  N        -77.6980   78.1920   20.5580 N.am  234  SER234     -0.1936
     60  CA       -78.0780   78.4950   21.9300 C.3   234  SER234      0.2055
     61  C        -79.0470   77.4230   22.4100 C.2   234  SER234      0.2644
     62  O        -79.4220   76.5470   21.6420 O.2   234  SER234     -0.2714
     63  CB       -78.7660   79.8620   21.9940 C.3   234  SER234      0.2130
     64  OG       -80.0330   79.8210   21.3510 O.3   234  SER234     -0.2179
     65  N        -79.4670   77.5070   23.6690 N.am  235  GLY235     -0.1939
     66  CA       -80.4080   76.5360   24.2040 C.3   235  GLY235      0.2014
     67  C        -81.7120   76.4020   23.4160 C.2   235  GLY235      0.2639
     68  O        -82.1570   75.2970   23.0900 O.2   235  GLY235     -0.2714
     69  N        -82.3490   77.5240   23.1160 N.am  236  GLY236     -0.1939
     70  CA       -83.5780   77.4640   22.3630 C.3   236  GLY236      0.2014
     71  C        -83.2810   77.0200   20.9450 C.2   236  GLY236      0.2638
     72  O        -84.0790   76.3190   20.3330 O.2   236  GLY236     -0.2714
     73  N        -82.1340   77.4190   20.4060 N.am  237  GLU237     -0.1977
     74  CA       -81.7900   77.0320   19.0460 C.3   237  GLU237      0.1602
     75  C        -81.5020   75.5500   18.9540 C.2   237  GLU237      0.2287
     76  O        -81.9040   74.8770   18.0000 O.2   237  GLU237     -0.2864
     77  CB       -80.5910   77.8390   18.5680 C.3   237  GLU237      0.0415
     78  CG       -80.9590   79.2730   18.2700 C.3   237  GLU237      0.1163
     79  CD       -79.7830   80.1410   17.8600 C.2   237  GLU237      0.3649
     80  OE1      -80.0380   81.2130   17.2680 O.co2 237  GLU237     -0.2457
     81  OE2      -78.6200   79.7730   18.1350 O.co2 237  GLU237     -0.2457
     82  N        -86.7710   75.4690   27.0160 N.3   266  ALA266     -0.1245
     83  CA       -85.7990   76.4930   26.6650 C.3   266  ALA266      0.1562
     84  C        -86.2490   77.4390   25.5770 C.2   266  ALA266      0.2260
     85  O        -85.4760   78.3030   25.1460 O.2   266  ALA266     -0.2867
     86  CB       -84.5090   75.8380   26.2390 C.3   266  ALA266      0.0290
     87  N        -88.5320   80.2840   23.2780 N.3   268  ASP268     -0.1239
     88  CA       -89.0750   81.6340   23.1450 C.3   268  ASP268      0.1674
     89  C        -90.5700   81.4500   23.2230 C.2   268  ASP268      0.2266
     90  O        -91.0540   80.3280   23.2620 O.2   268  ASP268     -0.2867
     91  CB       -88.8390   82.1280   21.7210 C.3   268  ASP268      0.1410
     92  CG       -87.7760   83.1470   21.6210 C.2   268  ASP268      0.3668
     93  OD1      -87.4510   83.5260   20.4780 O.co2 268  ASP268     -0.2456
     94  OD2      -87.2740   83.5790   22.6710 O.co2 268  ASP268     -0.2456
@<TRIPOS>BOND
     1    26    25    1
     2    27    25    1
     3    25    24    2
     4    24    23    1
     5    23    22    1
     6    22    21    1
     7    21    18    1
     8    11    10    2
     9    18    19    1
    10    18    17    1
    11    10    17   am
    12    10     9    1
    13    19    20    2
    14    19    28   am
    15    31    30    2
    16    28    29    1
    17     4     3    2
    18     8     9    1
    19    30    29    1
    20     9    12    1
    21     3     2    1
    22    29    32    1
    23     1     2    1
    24     1     7    1
    25     2     5    1
    26    12    13    1
    27    35    37   ar
    28    35    33   ar
    29    32    33    1
    30    37    38   ar
    31    33    34   ar
    32     7     6    1
    33    13    14    1
    34     5     6    1
    35    38    36   ar
    36    34    36   ar
    37    14    15    1
    38    58    56    1
    39    16    15    1
    40    57    56    1
    41    50    49    1
    42    49    48   ar
    43    49    47   ar
    44    48    46   ar
    45    47    45   ar
    46    46    44   ar
    47    56    55    1
    48    45    44   ar
    49    44    43    1
    50    43    40    1
    51    80    79   ar
    52    79    81   ar
    53    79    78    1
    54    76    75    2
    55    78    77    1
    56    55    52    1
    57    40    39    1
    58    40    41    1
    59    51    41   am
    60    51    52    1
    61    77    74    1
    62    41    42    2
    63    52    53    1
    64    75    74    1
    65    74    73    1
    66    53    59   am
    67    53    54    2
    68    72    71    2
    69    73    71   am
    70    93    92   ar
    71    59    60    1
    72    71    70    1
    73    64    63    1
    74    92    91    1
    75    92    94   ar
    76    62    61    2
    77    91    88    1
    78    60    63    1
    79    60    61    1
    80    70    69    1
    81    61    65   am
    82    68    67    2
    83    69    67   am
    84    88    89    1
    85    88    87    1
    86    89    90    2
    87    67    66    1
    88    65    66    1
    89    85    84    2
    90    84    83    1
    91    86    83    1
    92    83    82    1
