@<TRIPOS>MOLECULE
tmp/1w1wA01.pdb
 76 73 0 0 0
SMALL
GASTEIGER

@<TRIPOS>ATOM
      1  N        -95.0560   67.0960   50.8520 N.3   172  LYS172     -0.1245
      2  CA       -94.6040   65.7410   50.5440 C.3   172  LYS172      0.1561
      3  C        -93.7500   65.1810   51.6810 C.2   172  LYS172      0.2260
      4  O        -93.7200   65.7400   52.7790 O.2   172  LYS172     -0.2867
      5  CB       -93.8050   65.7450   49.2410 C.3   172  LYS172      0.0271
      6  CG       -94.5690   66.3290   48.0670 C.3   172  LYS172      0.0035
      7  CD       -93.8430   66.0970   46.7580 C.3   172  LYS172      0.0206
      8  CE       -94.5990   66.7110   45.5910 C.3   172  LYS172      0.1093
      9  NZ       -95.9970   66.2220   45.5280 N.3   172  LYS172     -0.1314
     10  N        -90.1510   62.8520   51.4090 N.3   174  PHE174     -0.1241
     11  CA       -89.1320   61.9740   50.8520 C.3   174  PHE174      0.1605
     12  C        -87.8510   62.7600   51.0640 C.2   174  PHE174      0.2264
     13  O        -87.9070   63.8960   51.5270 O.2   174  PHE174     -0.2867
     14  CB       -89.3900   61.7320   49.3570 C.3   174  PHE174      0.0534
     15  CG       -90.0470   60.3940   49.0460 C.ar  174  PHE174     -0.0203
     16  CD1      -90.8230   60.2320   47.8940 C.ar  174  PHE174     -0.0042
     17  CD2      -89.8640   59.2860   49.8830 C.ar  174  PHE174     -0.0042
     18  CE1      -91.4060   58.9890   47.5800 C.ar  174  PHE174     -0.0003
     19  CE2      -90.4430   58.0390   49.5750 C.ar  174  PHE174     -0.0003
     20  CZ       -91.2140   57.8950   48.4220 C.ar  174  PHE174     -0.0000
     21  N        -86.0730   61.2600   44.1170 N.3   179  TYR179     -0.1227
     22  CA       -87.5300   61.3270   44.0770 C.3   179  TYR179      0.1736
     23  C        -88.1050   62.6960   43.7150 C.2   179  TYR179      0.2595
     24  O        -89.2700   62.8040   43.3370 O.2   179  TYR179     -0.2718
     25  CB       -88.1040   60.8610   45.4210 C.3   179  TYR179      0.0548
     26  CG       -87.8350   59.3990   45.7210 C.ar  179  TYR179     -0.0200
     27  CD1      -86.5330   58.9360   45.9630 C.ar  179  TYR179     -0.0009
     28  CD2      -88.8790   58.4690   45.7350 C.ar  179  TYR179     -0.0009
     29  CE1      -86.2820   57.5810   46.2090 C.ar  179  TYR179      0.0417
     30  CE2      -88.6430   57.1170   45.9820 C.ar  179  TYR179      0.0417
     31  CZ       -87.3440   56.6790   46.2150 C.ar  179  TYR179      0.1957
     32  OH       -87.1130   55.3420   46.4440 O.3   179  TYR179     -0.2866
     33  N        -87.2980   63.7390   43.8400 N.am  180  LEU180     -0.1966
     34  CA       -87.7530   65.0720   43.5030 C.3   180  LEU180      0.1728
     35  C        -88.0000   65.1890   41.9940 C.2   180  LEU180      0.2617
     36  O        -87.3890   64.4690   41.1970 O.2   180  LEU180     -0.2715
     37  CB       -86.7090   66.0950   43.9410 C.3   180  LEU180      0.0311
     38  CG       -86.5130   66.2480   45.4440 C.3   180  LEU180      0.0022
     39  CD1      -85.4970   67.3450   45.7190 C.3   180  LEU180      0.0001
     40  CD2      -87.8430   66.5820   46.0860 C.3   180  LEU180      0.0001
     41  N        -88.8990   66.0930   41.6070 N.am  181  SER181     -0.1936
     42  CA       -89.2150   66.3200   40.2000 C.3   181  SER181      0.2055
     43  C        -88.2930   67.3960   39.6270 C.2   181  SER181      0.2644
     44  O        -87.4770   67.9900   40.3430 O.2   181  SER181     -0.2714
     45  CB       -90.6470   66.8030   40.0450 C.3   181  SER181      0.2130
     46  OG       -90.7250   68.1660   40.4140 O.3   181  SER181     -0.2179
     47  N        -88.4430   67.6530   38.3320 N.am  182  GLY182     -0.1939
     48  CA       -87.6240   68.6570   37.6900 C.3   182  GLY182      0.2014
     49  C        -87.6790   69.9510   38.4640 C.2   182  GLY182      0.2639
     50  O        -86.6490   70.4640   38.9060 O.2   182  GLY182     -0.2714
     51  N        -88.8890   70.4700   38.6380 N.am  183  GLY183     -0.1939
     52  CA       -89.0540   71.7120   39.3590 C.3   183  GLY183      0.2014
     53  C        -88.5230   71.6080   40.7690 C.2   183  GLY183      0.2638
     54  O        -87.7390   72.4470   41.2230 O.2   183  GLY183     -0.2714
     55  N        -88.9330   70.5560   41.4600 N.am  184  GLU184     -0.1977
     56  CA       -88.5020   70.3800   42.8220 C.3   184  GLU184      0.1602
     57  C        -86.9910   70.3800   42.9490 C.2   184  GLU184      0.2287
     58  O        -86.4350   71.0680   43.8070 O.2   184  GLU184     -0.2864
     59  CB       -89.1330   69.1160   43.3850 C.3   184  GLU184      0.0415
     60  CG       -90.6000   69.3440   43.6860 C.3   184  GLU184      0.1163
     61  CD       -91.3790   68.0840   43.9810 C.2   184  GLU184      0.3649
     62  OE1      -92.5780   68.2120   44.3070 O.co2 184  GLU184     -0.2457
     63  OE2      -90.8100   66.9740   43.8830 O.co2 184  GLU184     -0.2457
     64  N        -87.3660   74.9970   34.5910 N.3   213  ALA213     -0.1245
     65  CA       -88.2380   73.8880   34.9740 C.3   213  ALA213      0.1562
     66  C        -89.3430   74.2560   35.9550 C.2   213  ALA213      0.2260
     67  O        -90.1440   73.4010   36.3390 O.2   213  ALA213     -0.2867
     68  CB       -87.3970   72.7650   35.5730 C.3   213  ALA213      0.0290
     69  N        -92.6140   76.2230   38.0050 N.3   215  ASP215     -0.1239
     70  CA       -94.0410   76.5470   38.0590 C.3   215  ASP215      0.1674
     71  C        -94.1360   78.0390   37.8960 C.2   215  ASP215      0.2266
     72  O        -93.1310   78.7400   37.9760 O.2   215  ASP215     -0.2867
     73  CB       -94.5680   76.2930   39.4690 C.3   215  ASP215      0.1410
     74  CG       -95.3690   75.0530   39.5730 C.2   215  ASP215      0.3668
     75  OD1      -95.7260   74.6890   40.7140 O.co2 215  ASP215     -0.2456
     76  OD2      -95.6500   74.4510   38.5170 O.co2 215  ASP215     -0.2456
@<TRIPOS>BOND
     1    64    65    1
     2    65    68    1
     3    65    66    1
     4    66    67    2
     5    48    47    1
     6    48    49    1
     7    71    72    2
     8    71    70    1
     9    69    70    1
    10    70    73    1
    11    47    43   am
    12    49    51   am
    13    49    50    2
    14    76    74   ar
    15    51    52    1
    16    52    53    1
    17    73    74    1
    18    74    75   ar
    19    43    42    1
    20    43    44    2
    21    45    42    1
    22    45    46    1
    23    42    41    1
    24    53    54    2
    25    53    55   am
    26    36    35    2
    27    55    56    1
    28    41    35   am
    29    35    34    1
    30    56    57    1
    31    56    59    1
    32    57    58    2
    33    24    23    2
    34    59    60    1
    35    34    33    1
    36    34    37    1
    37    60    61    1
    38    23    33   am
    39    23    22    1
    40    63    61   ar
    41    37    38    1
    42    61    62   ar
    43    22    21    1
    44    22    25    1
    45    25    26    1
    46    38    39    1
    47    38    40    1
    48     9     8    1
    49     8     7    1
    50    26    28   ar
    51    26    27   ar
    52    28    30   ar
    53    27    29   ar
    54    30    31   ar
    55    29    31   ar
    56    31    32    1
    57     7     6    1
    58    18    16   ar
    59    18    20   ar
    60    16    15   ar
    61     6     5    1
    62    20    19   ar
    63    15    14    1
    64    15    17   ar
    65     5     2    1
    66    14    11    1
    67    19    17   ar
    68     2     1    1
    69     2     3    1
    70    11    12    1
    71    11    10    1
    72    12    13    2
    73     3     4    2
