@<TRIPOS>MOLECULE
tmp/1w1wA00.pdb
 152 143 0 0 0
SMALL
GASTEIGER

@<TRIPOS>ATOM
      1  N        -68.2760   87.9910   21.2280 N.3    12  LYS12      -0.1231
      2  CA       -68.7510   86.7240   20.6890 C.3    12  LYS12       0.1693
      3  C        -69.7250   87.0540   19.5970 C.2    12  LYS12       0.2592
      4  O        -69.3750   87.0600   18.4220 O.2    12  LYS12      -0.2718
      5  CB       -69.3880   85.8290   21.7640 C.3    12  LYS12       0.0285
      6  CG       -68.3670   85.0220   22.5680 C.3    12  LYS12       0.0035
      7  CD       -69.0020   84.0340   23.5400 C.3    12  LYS12       0.0206
      8  CE       -69.2740   82.6940   22.8780 C.3    12  LYS12       0.1093
      9  NZ       -69.7670   81.6760   23.8520 N.3    12  LYS12      -0.1314
     10  N        -70.9530   87.3420   19.9790 N.am   13  SER13      -0.1952
     11  CA       -71.9340   87.7110   18.9930 C.3    13  SER13       0.1924
     12  C        -72.0030   89.2310   19.0670 C.2    13  SER13       0.2314
     13  O        -72.7550   89.8570   18.3310 O.2    13  SER13      -0.2863
     14  CB       -73.2800   87.0900   19.3350 C.3    13  SER13       0.2116
     15  OG       -73.6650   87.4800   20.6320 O.3    13  SER13      -0.2180
     16  N        -84.6510   84.0300   21.8560 N.3    34  ASN34      -0.1225
     17  CA       -83.7250   82.9150   21.7500 C.3    34  ASN34       0.1785
     18  C        -82.6360   83.2790   20.7630 C.2    34  ASN34       0.2598
     19  O        -82.8990   83.8740   19.7180 O.2    34  ASN34      -0.2718
     20  CB       -84.4550   81.6530   21.2560 C.3    34  ASN34       0.1169
     21  CG       -85.1750   80.9030   22.3730 C.2    34  ASN34       0.2627
     22  OD1      -86.1760   80.2180   22.1430 O.2    34  ASN34      -0.2716
     23  ND2      -84.6520   81.0160   23.5910 N.am   34  ASN34      -0.0877
     24  N        -81.4050   82.9330   21.1010 N.am   35  GLY35      -0.1942
     25  CA       -80.2990   83.2130   20.2050 C.3    35  GLY35       0.2014
     26  C        -79.8790   84.6580   20.0510 C.2    35  GLY35       0.2640
     27  O        -79.0020   84.9510   19.2330 O.2    35  GLY35      -0.2714
     28  N        -80.4690   85.5520   20.8410 N.am   36  SER36      -0.1935
     29  CA       -80.1370   86.9640   20.7500 C.3    36  SER36       0.2055
     30  C        -78.7350   87.2640   21.2750 C.2    36  SER36       0.2644
     31  O        -78.0900   88.2170   20.8300 O.2    36  SER36      -0.2714
     32  CB       -81.1600   87.7840   21.5020 C.3    36  SER36       0.2130
     33  OG       -81.0790   87.4830   22.8690 O.3    36  SER36      -0.2179
     34  N        -78.2580   86.4550   22.2140 N.am   37  GLY37      -0.1939
     35  CA       -76.9190   86.6630   22.7280 C.3    37  GLY37       0.2014
     36  C        -76.8200   86.9110   24.2180 C.2    37  GLY37       0.2639
     37  O        -75.8520   87.5220   24.6640 O.2    37  GLY37      -0.2714
     38  N        -77.7960   86.4380   24.9910 N.am   38  LYS38      -0.1963
     39  CA       -77.7960   86.6240   26.4450 C.3    38  LYS38       0.1728
     40  C        -76.7280   85.7950   27.1580 C.2    38  LYS38       0.2617
     41  O        -75.9660   86.3080   27.9750 O.2    38  LYS38      -0.2715
     42  CB       -79.1720   86.2840   27.0290 C.3    38  LYS38       0.0311
     43  CG       -80.2870   87.1330   26.4380 C.3    38  LYS38       0.0038
     44  CD       -81.6130   86.8960   27.1260 C.3    38  LYS38       0.0206
     45  CE       -82.1310   85.4880   26.8910 C.3    38  LYS38       0.1093
     46  NZ       -82.2350   85.1460   25.4440 N.3    38  LYS38      -0.1314
     47  N        -76.6630   84.5060   26.8570 N.am   39  SER39      -0.1936
     48  CA       -75.6780   83.6630   27.5140 C.3    39  SER39       0.2055
     49  C        -74.2850   84.1220   27.1060 C.2    39  SER39       0.2643
     50  O        -73.3460   84.0210   27.8930 O.2    39  SER39      -0.2714
     51  CB       -75.9160   82.1980   27.1570 C.3    39  SER39       0.2130
     52  OG       -77.1160   81.7330   27.7550 O.3    39  SER39      -0.2179
     53  N        -74.1440   84.6390   25.8870 N.am   40  ASN40      -0.1971
     54  CA       -72.8440   85.1220   25.4550 C.3    40  ASN40       0.1688
     55  C        -72.4430   86.2370   26.4240 C.2    40  ASN40       0.2292
     56  O        -71.2720   86.4000   26.7700 O.2    40  ASN40      -0.2864
     57  CB       -72.9050   85.6490   24.0260 C.3    40  ASN40       0.1181
     58  CG       -72.9640   84.5390   23.0010 C.2    40  ASN40       0.2629
     59  OD1      -72.2860   83.5270   23.1380 O.2    40  ASN40      -0.2716
     60  ND2      -73.7540   84.7310   21.9540 N.am   40  ASN40      -0.0877
     61  N        -62.7130   80.5230   20.6220 N.3    54  ASP54      -0.1239
     62  CA       -64.1230   80.6670   20.2550 C.3    54  ASP54       0.1674
     63  C        -64.7950   81.9040   20.8220 C.2    54  ASP54       0.2266
     64  O        -65.9550   82.1850   20.5220 O.2    54  ASP54      -0.2867
     65  CB       -64.9070   79.4260   20.6670 C.3    54  ASP54       0.1410
     66  CG       -64.7050   78.2830   19.7030 C.2    54  ASP54       0.3668
     67  OD1      -65.5010   77.3100   19.7350 O.co2  54  ASP54      -0.2456
     68  OD2      -63.7400   78.3660   18.9100 O.co2  54  ASP54      -0.2456
     69  N        -63.3240   85.0580   20.5290 N.3    56  ILE56      -0.1231
     70  CA       -63.2150   86.1130   19.5360 C.3    56  ILE56       0.1692
     71  C        -64.3380   85.9780   18.4960 C.2    56  ILE56       0.2592
     72  O        -64.5730   84.8910   17.9590 O.2    56  ILE56      -0.2718
     73  CB       -61.8560   86.0680   18.8300 C.3    56  ILE56       0.0266
     74  CG1      -60.7510   86.2980   19.8610 C.3    56  ILE56       0.0019
     75  CG2      -61.8130   87.1180   17.7160 C.3    56  ILE56       0.0020
     76  CD1      -59.3650   86.4180   19.2760 C.3    56  ILE56       0.0001
     77  N        -65.0360   87.0790   18.2290 N.am   57  TYR57      -0.1962
     78  CA       -66.1400   87.1070   17.2640 C.3    57  TYR57       0.1771
     79  C        -65.7300   86.6360   15.8640 C.2    57  TYR57       0.2619
     80  O        -64.5900   86.8100   15.4590 O.2    57  TYR57      -0.2715
     81  CB       -66.7050   88.5340   17.1890 C.3    57  TYR57       0.0574
     82  CG       -67.5430   88.8220   15.9610 C.ar   57  TYR57      -0.0198
     83  CD1      -68.9290   88.6710   15.9790 C.ar   57  TYR57      -0.0009
     84  CD2      -66.9420   89.2090   14.7580 C.ar   57  TYR57      -0.0009
     85  CE1      -69.6980   88.8960   14.8210 C.ar   57  TYR57       0.0417
     86  CE2      -67.6980   89.4280   13.6010 C.ar   57  TYR57       0.0417
     87  CZ       -69.0700   89.2690   13.6380 C.ar   57  TYR57       0.1957
     88  OH       -69.8050   89.4500   12.4920 O.3    57  TYR57      -0.2866
     89  N        -66.6760   86.0540   15.1310 N.am   58  ARG58      -0.1977
     90  CA       -66.4440   85.5600   13.7620 C.3    58  ARG58       0.1597
     91  C        -67.5120   86.0590   12.7670 C.2    58  ARG58       0.2287
     92  O        -68.5940   86.4930   13.1750 O.2    58  ARG58      -0.2864
     93  CB       -66.4270   84.0290   13.7460 C.3    58  ARG58       0.0334
     94  CG       -65.2070   83.4310   14.4160 C.3    58  ARG58       0.0492
     95  CD       -64.4040   82.5570   13.4400 C.3    58  ARG58       0.2205
     96  NE       -64.3630   81.1500   13.8510 N.pl3  58  ARG58      -0.0865
     97  CZ       -65.4390   80.3810   14.0330 C.cat  58  ARG58       0.5346
     98  NH1      -65.2960   79.1130   14.4100 N.pl3  58  ARG58       0.1354
     99  NH2      -66.6580   80.8760   13.8390 N.pl3  58  ARG58       0.1354
    100  N        -76.3490   78.2330   31.9110 N.3   122  GLN122     -0.1245
    101  CA       -77.5640   77.7000   31.3040 C.3   122  GLN122      0.1566
    102  C        -77.5520   76.1840   31.3570 C.2   122  GLN122      0.2260
    103  O        -76.5330   75.5550   31.0700 O.2   122  GLN122     -0.2867
    104  CB       -77.6960   78.2020   29.8530 C.3   122  GLN122      0.0367
    105  CG       -78.8280   77.5640   29.0510 C.3   122  GLN122      0.0905
    106  CD       -79.5210   78.5290   28.0990 C.2   122  GLN122      0.2608
    107  OE1      -78.9400   79.5370   27.6700 O.2   122  GLN122     -0.2717
    108  NE2      -80.7740   78.2170   27.7510 N.am  122  GLN122     -0.0878
    109  N        -80.5210   80.3730   32.9260 N.3   209  GLU209     -0.1245
    110  CA       -81.9520   80.0750   32.9990 C.3   209  GLU209      0.1567
    111  C        -82.3870   79.1670   34.1360 C.2   209  GLU209      0.2260
    112  O        -83.0530   78.1580   33.9320 O.2   209  GLU209     -0.2867
    113  CB       -82.4230   79.5190   31.6650 C.3   209  GLU209      0.0388
    114  CG       -82.1080   80.4180   30.5080 C.3   209  GLU209      0.1160
    115  CD       -83.3520   80.9700   29.8700 C.2   209  GLU209      0.3649
    116  OE1      -84.1270   81.6340   30.5960 O.co2 209  GLU209     -0.2457
    117  OE2      -83.5550   80.7410   28.6470 O.co2 209  GLU209     -0.2457
    118  N        -80.7320   85.8570   33.8680 N.3   239  ILE239     -0.1245
    119  CA       -81.1390   85.7120   32.4710 C.3   239  ILE239      0.1561
    120  C        -82.4060   84.8800   32.4850 C.2   239  ILE239      0.2260
    121  O        -82.3940   83.7480   32.9410 O.2   239  ILE239     -0.2867
    122  CB       -80.0790   84.9920   31.6190 C.3   239  ILE239      0.0252
    123  CG1      -78.7560   85.7420   31.6980 C.3   239  ILE239      0.0019
    124  CG2      -80.5280   84.9490   30.1710 C.3   239  ILE239      0.0019
    125  CD1      -77.6940   85.1520   30.8200 C.3   239  ILE239      0.0001
    126  N        -86.4570   84.1020   30.4510 N.3   241  LEU241     -0.1245
    127  CA       -87.3440   84.2940   29.3240 C.3   241  LEU241      0.1561
    128  C        -88.7320   84.5640   29.8860 C.2   241  LEU241      0.2260
    129  O        -89.6260   85.0190   29.1750 O.2   241  LEU241     -0.2867
    130  CB       -87.3890   83.0300   28.4780 C.3   241  LEU241      0.0270
    131  CG       -86.1610   82.6380   27.6780 C.3   241  LEU241      0.0019
    132  CD1      -86.3880   81.3020   27.0410 C.3   241  LEU241      0.0001
    133  CD2      -85.9100   83.6840   26.6220 C.3   241  LEU241      0.0001
    134  N        -80.9160   90.9800   18.2100 N.3   257  ARG257     -0.1245
    135  CA       -80.0040   90.8060   17.0830 C.3   257  ARG257      0.1563
    136  C        -80.2580   91.9240   16.0800 C.2   257  ARG257      0.2260
    137  O        -81.3210   92.5340   16.0730 O.2   257  ARG257     -0.2867
    138  CB       -80.2150   89.4420   16.3860 C.3   257  ARG257      0.0307
    139  CG       -79.6410   88.2000   17.1020 C.3   257  ARG257      0.0489
    140  CD       -78.1150   88.2610   17.2720 C.3   257  ARG257      0.2205
    141  NE       -77.2950   87.5990   16.2430 N.pl3 257  ARG257     -0.0865
    142  CZ       -77.5920   87.4940   14.9470 C.cat 257  ARG257      0.5346
    143  NH1      -76.7410   86.8860   14.1350 N.pl3 257  ARG257      0.1354
    144  NH2      -78.7420   87.9500   14.4570 N.pl3 257  ARG257      0.1354
    145  N        -75.1370   91.4810   11.6520 N.3   262  ASN262     -0.1240
    146  CA       -74.8270   90.1750   12.2660 C.3   262  ASN262      0.1653
    147  C        -74.1700   90.3160   13.6360 C.2   262  ASN262      0.2266
    148  O        -73.0710   89.8070   13.8750 O.2   262  ASN262     -0.2867
    149  CB       -73.9180   89.3440   11.3560 C.3   262  ASN262      0.1155
    150  CG       -73.5290   88.0190   11.9850 C.2   262  ASN262      0.2627
    151  OD1      -74.3940   87.2490   12.3950 O.2   262  ASN262     -0.2716
    152  ND2      -72.2250   87.7480   12.0710 N.am  262  ASN262     -0.0877
@<TRIPOS>BOND
     1   149   150    1
     2   149   146    1
     3   145   146    1
     4   150   152   am
     5   150   151    2
     6   146   147    1
     7    88    87    1
     8    91    92    2
     9    91    90    1
    10    95    96    1
    11    95    94    1
    12    86    87   ar
    13    86    84   ar
    14   147   148    2
    15    87    85   ar
    16    93    90    1
    17    93    94    1
    18    90    89    1
    19    99    97    1
    20    96    97    2
    21    97    98    1
    22   143   142    1
    23   144   142    1
    24    84    82   ar
    25    85    83   ar
    26   142   141    2
    27    89    79   am
    28    80    79    2
    29    79    78    1
    30    82    83   ar
    31    82    81    1
    32   137   136    2
    33   136   135    1
    34   141   140    1
    35   138   135    1
    36   138   139    1
    37   135   134    1
    38   139   140    1
    39    81    78    1
    40    78    77    1
    41    75    73    1
    42    72    71    2
    43    77    71   am
    44    13    12    2
    45     4     3    2
    46    71    70    1
    47    73    70    1
    48    73    74    1
    49    68    66   ar
    50    11    12    1
    51    11    14    1
    52    11    10    1
    53    27    26    2
    54    76    74    1
    55    14    15    1
    56    70    69    1
    57     3    10   am
    58     3     2    1
    59    66    67   ar
    60    66    65    1
    61    19    18    2
    62    26    25    1
    63    26    28   am
    64    25    24    1
    65    62    61    1
    66    62    65    1
    67    62    63    1
    68    64    63    2
    69     2     1    1
    70     2     5    1
    71    29    28    1
    72    29    30    1
    73    29    32    1
    74    18    24   am
    75    18    17    1
    76    31    30    2
    77    20    17    1
    78    20    21    1
    79    30    34   am
    80    32    33    1
    81    17    16    1
    82     5     6    1
    83    60    58   am
    84    22    21    2
    85    34    35    1
    86    21    23   am
    87     6     7    1
    88    35    36    1
    89     8     7    1
    90     8     9    1
    91    58    59    2
    92    58    57    1
    93    57    54    1
    94    36    37    2
    95    36    38   am
    96    38    39    1
    97    46    45    1
    98    54    53    1
    99    54    55    1
   100    53    49   am
   101    55    56    2
   102    43    42    1
   103    43    44    1
   104    39    42    1
   105    39    40    1
   106   133   131    1
   107    47    40   am
   108    47    48    1
   109    45    44    1
   110   132   131    1
   111    49    48    1
   112    49    50    2
   113    51    48    1
   114    51    52    1
   115    40    41    2
   116   107   106    2
   117   131   130    1
   118   108   106   am
   119   106   105    1
   120   130   127    1
   121   117   115   ar
   122   105   104    1
   123   129   128    2
   124   127   128    1
   125   127   126    1
   126   104   101    1
   127   115   114    1
   128   115   116   ar
   129   124   122    1
   130   114   113    1
   131   125   123    1
   132   103   102    2
   133   101   102    1
   134   101   100    1
   135   122   123    1
   136   122   119    1
   137   113   110    1
   138   119   120    1
   139   119   118    1
   140   120   121    2
   141   109   110    1
   142   110   111    1
   143   112   111    2
