@<TRIPOS>MOLECULE
tmp/1w1yB02.pdb
 99 95 0 0 0
SMALL
GASTEIGER

@<TRIPOS>ATOM
      1  N         21.1540   78.1150   51.7220 N.3   160  ARG160     -0.1245
      2  CA        20.5210   77.0970   50.8840 C.3   160  ARG160      0.1563
      3  C         19.1400   77.6140   50.4420 C.2   160  ARG160      0.2260
      4  O         18.8070   77.5990   49.2500 O.2   160  ARG160     -0.2867
      5  CB        20.3670   75.7940   51.6640 C.3   160  ARG160      0.0307
      6  CG        19.4410   74.7690   50.9970 C.3   160  ARG160      0.0489
      7  CD        19.7940   74.5140   49.5060 C.3   160  ARG160      0.2205
      8  NE        21.1080   73.8850   49.3280 N.pl3 160  ARG160     -0.0865
      9  CZ        21.6230   73.5820   48.1410 C.cat 160  ARG160      0.5346
     10  NH1       20.9310   73.8630   47.0440 N.pl3 160  ARG160      0.1354
     11  NH2       22.8100   72.9730   48.0360 N.pl3 160  ARG160      0.1354
     12  N         18.1640   78.3160   46.5710 N.3   164  ASN164     -0.1240
     13  CA        17.1120   77.6100   45.8620 C.3   164  ASN164      0.1653
     14  C         16.1190   78.6110   45.2780 C.2   164  ASN164      0.2266
     15  O         15.6400   78.4320   44.1680 O.2   164  ASN164     -0.2867
     16  CB        16.4160   76.6150   46.7870 C.3   164  ASN164      0.1155
     17  CG        17.2490   75.3670   47.0160 C.2   164  ASN164      0.2627
     18  OD1       18.3650   75.2630   46.5070 O.2   164  ASN164     -0.2716
     19  ND2       16.7160   74.4170   47.7780 N.am  164  ASN164     -0.0877
     20  N         17.6990   80.1560   42.2560 N.3   167  THR167     -0.1203
     21  CA        17.7060   79.2980   41.0830 C.3   167  THR167      0.1994
     22  C         16.3770   79.5140   40.3410 C.2   167  THR167      0.2617
     23  O         16.3540   79.6600   39.1190 O.2   167  THR167     -0.2717
     24  CB        17.8760   77.7820   41.4650 C.3   167  THR167      0.1784
     25  OG1       19.1970   77.5520   41.9900 O.3   167  THR167     -0.2211
     26  CG2       17.6780   76.8770   40.2280 C.3   167  THR167      0.0376
     27  N         15.2780   79.5470   41.0910 N.am  168  ILE168     -0.1979
     28  CA        13.9500   79.7530   40.4920 C.3   168  ILE168      0.1595
     29  C         13.8570   81.1200   39.8270 C.2   168  ILE168      0.2287
     30  O         13.4360   81.2400   38.6730 O.2   168  ILE168     -0.2864
     31  CB        12.8450   79.6460   41.5680 C.3   168  ILE168      0.0276
     32  CG1       12.6660   78.1770   41.9490 C.3   168  ILE168      0.0022
     33  CG2       11.5340   80.2970   41.0690 C.3   168  ILE168      0.0022
     34  CD1       11.6990   77.9490   43.1130 C.3   168  ILE168      0.0001
     35  N         17.2810   76.2310   36.6370 N.3   173  GLN173     -0.1245
     36  CA        17.0140   74.8120   36.8580 C.3   173  GLN173      0.1566
     37  C         18.0060   73.8760   36.1600 C.2   173  GLN173      0.2260
     38  O         18.2600   72.7740   36.6430 O.2   173  GLN173     -0.2867
     39  CB        15.5900   74.4530   36.3970 C.3   173  GLN173      0.0367
     40  CG        14.4690   74.9870   37.2980 C.3   173  GLN173      0.0905
     41  CD        14.0880   76.4330   37.0020 C.2   173  GLN173      0.2608
     42  OE1       14.6510   77.0650   36.1070 O.2   173  GLN173     -0.2717
     43  NE2       13.1170   76.9600   37.7540 N.am  173  GLN173     -0.0878
     44  N         21.4120   74.5590   38.7300 N.3   176  PRO176     -0.2102
     45  CA        21.0560   75.2380   39.9770 C.3   176  PRO176      0.1504
     46  C         22.2660   75.7100   40.7850 C.2   176  PRO176      0.2575
     47  O         23.3510   75.1160   40.7360 O.2   176  PRO176     -0.2718
     48  CB        20.2430   74.1860   40.7450 C.3   176  PRO176      0.0282
     49  CG        19.7910   73.1900   39.6310 C.3   176  PRO176      0.0208
     50  CD        21.0180   73.1390   38.7630 C.3   176  PRO176      0.0893
     51  N         22.0680   76.7990   41.5150 N.am  177  TYR177     -0.1977
     52  CA        23.1260   77.3260   42.3680 C.3   177  TYR177      0.1639
     53  C         23.4030   76.2940   43.4400 C.2   177  TYR177      0.2290
     54  O         22.4860   75.6360   43.9480 O.2   177  TYR177     -0.2864
     55  CB        22.6820   78.6370   43.0030 C.3   177  TYR177      0.0560
     56  CG        22.4760   79.6830   41.9460 C.ar  177  TYR177     -0.0198
     57  CD1       23.5400   80.0850   41.1380 C.ar  177  TYR177     -0.0009
     58  CD2       21.2220   80.2580   41.7270 C.ar  177  TYR177     -0.0009
     59  CE1       23.3640   81.0320   40.1370 C.ar  177  TYR177      0.0417
     60  CE2       21.0390   81.1910   40.7330 C.ar  177  TYR177      0.0417
     61  CZ        22.1150   81.5790   39.9380 C.ar  177  TYR177      0.1957
     62  OH        21.9490   82.5170   38.9310 O.3   177  TYR177     -0.2866
     63  N         23.5060   68.4000   55.3650 N.3   202  ALA202     -0.1231
     64  CA        22.1560   68.3950   54.8030 C.3   202  ALA202      0.1679
     65  C         21.8850   69.4790   53.7610 C.2   202  ALA202      0.2434
     66  O         21.3590   69.1920   52.6850 O.2   202  ALA202     -0.2733
     67  CB        21.1060   68.4670   55.9320 C.3   202  ALA202      0.0304
     68  N         22.2500   70.7330   54.0490 N.am  203  PRO203     -0.2718
     69  CA        21.9940   71.7770   53.0540 C.3   203  PRO203      0.1535
     70  C         23.0520   71.8860   51.9510 C.2   203  PRO203      0.2598
     71  O         22.9400   72.7240   51.0670 O.2   203  PRO203     -0.2715
     72  CB        21.9270   73.0550   53.8870 C.3   203  PRO203      0.0310
     73  CG        22.8010   72.7690   55.0440 C.3   203  PRO203      0.0237
     74  CD        22.6640   71.3030   55.3450 C.3   203  PRO203      0.0939
     75  N         24.0600   71.0280   51.9910 N.am  204  LEU204     -0.1964
     76  CA        25.1280   71.1190   51.0000 C.3   204  LEU204      0.1728
     77  C         24.9910   70.2040   49.8100 C.2   204  LEU204      0.2616
     78  O         24.3710   69.1610   49.9010 O.2   204  LEU204     -0.2715
     79  CB        26.4710   70.7550   51.6530 C.3   204  LEU204      0.0311
     80  CG        26.7730   71.4420   52.9740 C.3   204  LEU204      0.0022
     81  CD1       28.1430   70.9720   53.5090 C.3   204  LEU204      0.0001
     82  CD2       26.7700   72.9430   52.7190 C.3   204  LEU204      0.0001
     83  N         25.5750   70.6240   48.6920 N.am  205  ASP205     -0.1971
     84  CA        25.6480   69.7780   47.5230 C.3   205  ASP205      0.1709
     85  C         26.8250   68.8420   47.7990 C.2   205  ASP205      0.2293
     86  O         26.7700   67.6530   47.4910 O.2   205  ASP205     -0.2864
     87  CB        25.9160   70.6310   46.3010 C.3   205  ASP205      0.1436
     88  CG        24.7050   71.4080   45.9130 C.2   205  ASP205      0.3671
     89  OD1       23.7650   70.7980   45.3560 O.co2 205  ASP205     -0.2456
     90  OD2       24.6800   72.6070   46.2010 O.co2 205  ASP205     -0.2456
     91  N         27.7970   62.9850   48.8450 N.3   282  LYS282     -0.1245
     92  CA        28.1180   64.3840   49.1160 C.3   282  LYS282      0.1561
     93  C         29.5580   64.5880   49.5480 C.2   282  LYS282      0.2260
     94  O         30.0480   65.7050   49.5600 O.2   282  LYS282     -0.2867
     95  CB        27.2030   64.9430   50.2010 C.3   282  LYS282      0.0271
     96  CG        25.8080   65.2270   49.6890 C.3   282  LYS282      0.0035
     97  CD        24.9920   65.9710   50.7400 C.3   282  LYS282      0.0206
     98  CE        23.6190   66.3310   50.2000 C.3   282  LYS282      0.1093
     99  NZ        22.8750   67.1300   51.2330 N.3   282  LYS282     -0.1314
@<TRIPOS>BOND
     1    42    41    2
     2    37    38    2
     3    37    36    1
     4    39    36    1
     5    39    40    1
     6    35    36    1
     7    41    40    1
     8    41    43   am
     9    30    29    2
    10    44    50    1
    11    44    45    1
    12    50    49    1
    13    62    61    1
    14    23    22    2
    15    49    48    1
    16    29    28    1
    17    61    59   ar
    18    61    60   ar
    19    45    48    1
    20    45    46    1
    21    59    57   ar
    22    26    24    1
    23    22    21    1
    24    22    27   am
    25    28    27    1
    26    28    31    1
    27    60    58   ar
    28    47    46    2
    29    46    51   am
    30    33    31    1
    31    21    24    1
    32    21    20    1
    33    57    56   ar
    34    24    25    1
    35    51    52    1
    36    31    32    1
    37    58    56   ar
    38    56    55    1
    39    32    34    1
    40    52    55    1
    41    52    53    1
    42    53    54    2
    43    15    14    2
    44    14    13    1
    45    89    88   ar
    46    13    12    1
    47    13    16    1
    48    88    90   ar
    49    88    87    1
    50    87    84    1
    51    18    17    2
    52    16    17    1
    53    17    19   am
    54    10     9    1
    55    86    85    2
    56    84    85    1
    57    84    83    1
    58    11     9    1
    59     9     8    2
    60    83    77   am
    61    91    92    1
    62    92    93    1
    63    92    95    1
    64     4     3    2
    65     8     7    1
    66     7     6    1
    67    93    94    2
    68    96    95    1
    69    96    97    1
    70    77    78    2
    71    77    76    1
    72    98    97    1
    73    98    99    1
    74     3     2    1
    75     2     5    1
    76     2     1    1
    77     6     5    1
    78    76    79    1
    79    76    75    1
    80    71    70    2
    81    79    80    1
    82    70    75   am
    83    70    69    1
    84    66    65    2
    85    82    80    1
    86    80    81    1
    87    69    72    1
    88    69    68    1
    89    65    68   am
    90    65    64    1
    91    72    73    1
    92    68    74    1
    93    64    63    1
    94    64    67    1
    95    73    74    1
