@<TRIPOS>MOLECULE
tmp/1w1yB00.pdb
 164 159 0 0 0
SMALL
GASTEIGER

@<TRIPOS>ATOM
      1  N         40.4380   74.4050   42.9150 N.3     8  TYR8       -0.1241
      2  CA        40.5260   75.7640   43.3660 C.3     8  TYR8        0.1605
      3  C         41.3410   76.6260   42.4100 C.2     8  TYR8        0.2264
      4  O         42.3750   76.2020   41.8840 O.2     8  TYR8       -0.2867
      5  CB        41.2200   75.8660   44.7250 C.3     8  TYR8        0.0534
      6  CG        40.2710   75.7010   45.8720 C.ar    8  TYR8       -0.0201
      7  CD1       39.8490   74.4260   46.2700 C.ar    8  TYR8       -0.0009
      8  CD2       39.7630   76.8160   46.5370 C.ar    8  TYR8       -0.0009
      9  CE1       38.9320   74.2690   47.3150 C.ar    8  TYR8        0.0417
     10  CE2       38.8660   76.6710   47.5640 C.ar    8  TYR8        0.0417
     11  CZ        38.4510   75.3960   47.9510 C.ar    8  TYR8        0.1957
     12  OH        37.5340   75.2600   48.9740 O.3     8  TYR8       -0.2866
     13  N         40.0540   83.9300   47.3550 N.3    49  PHE49      -0.1241
     14  CA        39.0490   83.8100   48.4190 C.3    49  PHE49       0.1605
     15  C         38.3210   85.1190   48.6590 C.2    49  PHE49       0.2264
     16  O         38.8850   86.2070   48.4740 O.2    49  PHE49      -0.2867
     17  CB        39.7120   83.5190   49.7790 C.3    49  PHE49       0.0534
     18  CG        40.1750   82.1200   49.9470 C.ar   49  PHE49      -0.0203
     19  CD1       39.2440   81.0930   50.1440 C.ar   49  PHE49      -0.0042
     20  CD2       41.5280   81.8200   49.9030 C.ar   49  PHE49      -0.0042
     21  CE1       39.6790   79.7750   50.2980 C.ar   49  PHE49      -0.0003
     22  CE2       41.9710   80.5220   50.0480 C.ar   49  PHE49      -0.0003
     23  CZ        41.0430   79.4900   50.2470 C.ar   49  PHE49      -0.0000
     24  N         38.8560   80.1980   53.9880 N.3    94  GLY94      -0.1210
     25  CA        40.1290   79.5540   53.7420 C.3    94  GLY94       0.1956
     26  C         40.9060   79.6280   55.0590 C.2    94  GLY94       0.2612
     27  O         40.5330   80.3800   55.9710 O.2    94  GLY94      -0.2717
     28  N         41.9960   78.8730   55.1480 N.am   95  TRP95      -0.1962
     29  CA        42.7900   78.8100   56.3600 C.3    95  TRP95       0.1771
     30  C         43.2090   80.1640   56.9180 C.2    95  TRP95       0.2619
     31  O         42.9730   80.4830   58.0790 O.2    95  TRP95      -0.2715
     32  CB        44.0570   77.9770   56.1070 C.3    95  TRP95       0.0590
     33  CG        44.9380   77.8780   57.3230 C.ar   95  TRP95       0.0006
     34  CD1       46.1340   78.5000   57.5320 C.ar   95  TRP95       0.0946
     35  CD2       44.6660   77.1270   58.5040 C.ar   95  TRP95       0.0152
     36  NE1       46.6240   78.1850   58.7740 N.ar   95  TRP95      -0.2442
     37  CE2       45.7410   77.3400   59.3940 C.ar   95  TRP95       0.0810
     38  CE3       43.6140   76.2880   58.9010 C.ar   95  TRP95       0.0012
     39  CZ2       45.7950   76.7520   60.6520 C.ar   95  TRP95       0.0191
     40  CZ3       43.6720   75.6970   60.1680 C.ar   95  TRP95       0.0001
     41  CH2       44.7520   75.9330   61.0250 C.ar   95  TRP95       0.0015
     42  N         43.8310   80.9830   56.0900 N.am   96  TYR96      -0.1974
     43  CA        44.3190   82.2410   56.6360 C.3    96  TYR96       0.1639
     44  C         43.2940   83.2150   57.1410 C.2    96  TYR96       0.2290
     45  O         43.5040   83.8730   58.1630 O.2    96  TYR96      -0.2864
     46  CB        45.2830   82.8900   55.6520 C.3    96  TYR96       0.0560
     47  CG        46.5330   82.0420   55.5900 C.ar   96  TYR96      -0.0198
     48  CD1       46.7580   81.1740   54.5270 C.ar   96  TYR96      -0.0009
     49  CD2       47.4420   82.0350   56.6460 C.ar   96  TYR96      -0.0009
     50  CE1       47.8400   80.3220   54.5160 C.ar   96  TYR96       0.0417
     51  CE2       48.5370   81.1830   56.6400 C.ar   96  TYR96       0.0417
     52  CZ        48.7270   80.3300   55.5720 C.ar   96  TYR96       0.1957
     53  OH        49.8090   79.4740   55.5540 O.3    96  TYR96      -0.2866
     54  N         34.6620   78.0680   53.4510 N.3   140  ASP140     -0.1239
     55  CA        35.7940   77.3320   53.9650 C.3   140  ASP140      0.1674
     56  C         36.1930   77.8730   55.3290 C.2   140  ASP140      0.2266
     57  O         37.2620   78.4590   55.4870 O.2   140  ASP140     -0.2867
     58  CB        36.9860   77.4460   53.0140 C.3   140  ASP140      0.1410
     59  CG        36.6580   76.9560   51.6160 C.2   140  ASP140      0.3668
     60  OD1       35.6090   76.2800   51.4620 O.co2 140  ASP140     -0.2456
     61  OD2       37.4490   77.2500   50.6880 O.co2 140  ASP140     -0.2456
     62  N         37.6010   77.1600   58.6580 N.3   142  GLU142     -0.1245
     63  CA        38.4490   76.1230   59.2350 C.3   142  GLU142      0.1567
     64  C         38.8550   76.4140   60.6700 C.2   142  GLU142      0.2260
     65  O         39.9270   76.9680   60.8960 O.2   142  GLU142     -0.2867
     66  CB        39.6850   75.9970   58.3340 C.3   142  GLU142      0.0388
     67  CG        39.2490   75.8020   56.8770 C.3   142  GLU142      0.1160
     68  CD        40.4030   75.8880   55.8790 C.2   142  GLU142      0.3649
     69  OE1       41.5580   75.6330   56.2680 O.co2 142  GLU142     -0.2457
     70  OE2       40.1390   76.1840   54.6920 O.co2 142  GLU142     -0.2457
     71  N         34.3910   73.4380   52.6090 N.3   182  ALA182     -0.1245
     72  CA        35.6120   72.6710   52.7000 C.3   182  ALA182      0.1562
     73  C         35.4990   72.1450   54.1510 C.2   182  ALA182      0.2260
     74  O         35.2530   72.9090   55.0890 O.2   182  ALA182     -0.2867
     75  CB        36.8220   73.5770   52.5790 C.3   182  ALA182      0.0290
     76  N         39.2960   68.1570   53.2480 N.3   210  MET210     -0.1245
     77  CA        40.7030   68.4800   53.0720 C.3   210  MET210      0.1570
     78  C         41.4970   67.2880   53.5790 C.2   210  MET210      0.2261
     79  O         42.2130   67.3620   54.5860 O.2   210  MET210     -0.2867
     80  CB        41.0410   69.7560   53.8340 C.3   210  MET210      0.0387
     81  CG        40.5480   70.9730   53.0550 C.3   210  MET210      0.0595
     82  SD        41.1990   72.4760   53.7570 S.3   210  MET210     -0.1393
     83  CE        39.8830   72.8270   54.6690 C.3   210  MET210      0.0692
     84  N         44.2470   65.9490   53.2730 N.3   212  TYR212     -0.1227
     85  CA        45.6520   66.1330   53.0040 C.3   212  TYR212      0.1736
     86  C         46.1100   67.0890   54.0830 C.2   212  TYR212      0.2595
     87  O         45.3110   67.4440   54.9630 O.2   212  TYR212     -0.2718
     88  CB        45.9100   66.6330   51.5630 C.3   212  TYR212      0.0548
     89  CG        45.0450   67.7700   51.1020 C.ar  212  TYR212     -0.0200
     90  CD1       45.4350   69.0870   51.3060 C.ar  212  TYR212     -0.0009
     91  CD2       43.8450   67.5260   50.4270 C.ar  212  TYR212     -0.0009
     92  CE1       44.6480   70.1570   50.8350 C.ar  212  TYR212      0.0417
     93  CE2       43.0550   68.5770   49.9580 C.ar  212  TYR212      0.0417
     94  CZ        43.4670   69.8860   50.1620 C.ar  212  TYR212      0.1957
     95  OH        42.7130   70.9220   49.6590 O.3   212  TYR212     -0.2866
     96  N         47.3650   67.5250   54.0250 N.am  213  ASP213     -0.1974
     97  CA        47.9260   68.3280   55.1070 C.3   213  ASP213      0.1709
     98  C         47.8380   67.4780   56.3710 C.2   213  ASP213      0.2293
     99  O         47.7160   68.0090   57.4820 O.2   213  ASP213     -0.2864
    100  CB        47.1680   69.6270   55.3240 C.3   213  ASP213      0.1436
    101  CG        47.6390   70.7270   54.4030 C.2   213  ASP213      0.3671
    102  OD1       48.5190   70.4650   53.5610 O.co2 213  ASP213     -0.2456
    103  OD2       47.1200   71.8530   54.5350 O.co2 213  ASP213     -0.2456
    104  N         50.0830   69.8930   45.6170 N.3   290  TYR290     -0.1241
    105  CA        51.3790   70.3410   46.1110 C.3   290  TYR290      0.1605
    106  C         51.9480   69.3590   47.1090 C.2   290  TYR290      0.2264
    107  O         51.2320   68.5190   47.6570 O.2   290  TYR290     -0.2867
    108  CB        51.2600   71.6930   46.8020 C.3   290  TYR290      0.0534
    109  CG        50.3310   71.6380   48.0110 C.ar  290  TYR290     -0.0201
    110  CD1       50.8260   71.4180   49.2970 C.ar  290  TYR290     -0.0009
    111  CD2       48.9590   71.7940   47.8490 C.ar  290  TYR290     -0.0009
    112  CE1       49.9640   71.3650   50.4120 C.ar  290  TYR290      0.0417
    113  CE2       48.0860   71.7380   48.9400 C.ar  290  TYR290      0.0417
    114  CZ        48.5950   71.5270   50.2150 C.ar  290  TYR290      0.1957
    115  OH        47.7260   71.4700   51.2710 O.3   290  TYR290     -0.2866
    116  N         54.6440   68.7960   50.5950 N.3   292  ARG292     -0.1245
    117  CA        55.1510   69.4820   51.7910 C.3   292  ARG292      0.1563
    118  C         56.5350   68.9050   52.0220 C.2   292  ARG292      0.2260
    119  O         56.7600   67.6900   51.8790 O.2   292  ARG292     -0.2867
    120  CB        54.2120   69.2830   52.9840 C.3   292  ARG292      0.0307
    121  CG        53.0010   70.2420   52.9150 C.3   292  ARG292      0.0489
    122  CD        52.0810   70.1910   54.1430 C.3   292  ARG292      0.2205
    123  NE        50.9120   71.0820   53.9850 N.pl3 292  ARG292     -0.0865
    124  CZ        50.9420   72.4110   54.1250 C.cat 292  ARG292      0.5346
    125  NH1       52.0780   73.0350   54.4290 N.pl3 292  ARG292      0.1354
    126  NH2       49.8220   73.1270   53.9880 N.pl3 292  ARG292      0.1354
    127  N         54.6110   79.5930   60.8310 N.3   314  ASP314     -0.1239
    128  CA        53.9900   80.1980   59.6700 C.3   314  ASP314      0.1674
    129  C         53.8620   81.6910   59.9890 C.2   314  ASP314      0.2266
    130  O         53.2220   82.0620   60.9770 O.2   314  ASP314     -0.2867
    131  CB        52.6060   79.5840   59.4650 C.3   314  ASP314      0.1410
    132  CG        52.0320   79.8720   58.0880 C.2   314  ASP314      0.3668
    133  OD1       52.5840   80.7450   57.3830 O.co2 314  ASP314     -0.2456
    134  OD2       51.0230   79.2250   57.7170 O.co2 314  ASP314     -0.2456
    135  N         56.7730   73.9880   51.0390 N.3   337  ILE337     -0.1245
    136  CA        55.6350   73.6510   50.1970 C.3   337  ILE337      0.1561
    137  C         56.0510   73.8730   48.7680 C.2   337  ILE337      0.2260
    138  O         56.6830   74.8790   48.4690 O.2   337  ILE337     -0.2867
    139  CB        54.4270   74.5620   50.4570 C.3   337  ILE337      0.0252
    140  CG1       54.0650   74.5530   51.9330 C.3   337  ILE337      0.0019
    141  CG2       53.2190   74.0460   49.6680 C.3   337  ILE337      0.0019
    142  CD1       53.7920   73.1750   52.4330 C.3   337  ILE337      0.0001
    143  N         38.2820   67.0790   45.0700 N.3   399  MET399     -0.1245
    144  CA        38.4950   68.5180   45.1090 C.3   399  MET399      0.1570
    145  C         40.0100   68.6600   45.2100 C.2   399  MET399      0.2261
    146  O         40.6710   67.7620   45.7240 O.2   399  MET399     -0.2867
    147  CB        37.8290   69.1350   46.3630 C.3   399  MET399      0.0387
    148  CG        38.2450   70.5810   46.6200 C.3   399  MET399      0.0595
    149  SD        39.8220   70.6640   47.5210 S.3   399  MET399     -0.1393
    150  CE        39.2820   70.3360   49.2010 C.3   399  MET399      0.0692
    151  N         43.4910   71.5410   45.6540 N.3   401  TRP401     -0.1241
    152  CA        44.0790   72.8600   45.8050 C.3   401  TRP401      0.1605
    153  C         45.4950   72.6800   45.2390 C.2   401  TRP401      0.2264
    154  O         46.2630   71.8710   45.7740 O.2   401  TRP401     -0.2867
    155  CB        44.1610   73.2200   47.2860 C.3   401  TRP401      0.0550
    156  CG        44.9470   74.4600   47.5820 C.ar  401  TRP401      0.0003
    157  CD1       46.2920   74.5510   47.7700 C.ar  401  TRP401      0.0946
    158  CD2       44.4260   75.7880   47.7320 C.ar  401  TRP401      0.0152
    159  NE1       46.6510   75.8620   48.0310 N.ar  401  TRP401     -0.2442
    160  CE2       45.5270   76.6390   48.0130 C.ar  401  TRP401      0.0810
    161  CE3       43.1310   76.3420   47.6530 C.ar  401  TRP401      0.0012
    162  CZ2       45.3840   78.0120   48.2180 C.ar  401  TRP401      0.0191
    163  CZ3       42.9840   77.7270   47.8550 C.ar  401  TRP401      0.0001
    164  CH2       44.1110   78.5410   48.1340 C.ar  401  TRP401      0.0015
@<TRIPOS>BOND
     1     4     3    2
     2     3     2    1
     3     1     2    1
     4     2     5    1
     5     5     6    1
     6   143   144    1
     7   144   145    1
     8   144   147    1
     9   145   146    2
    10   153   154    2
    11   153   152    1
    12   104   105    1
    13   151   152    1
    14   152   155    1
    15     6     7   ar
    16     6     8   ar
    17   105   108    1
    18   105   106    1
    19     7     9   ar
    20   147   148    1
    21     8    10   ar
    22   148   149    1
    23   108   109    1
    24   106   107    2
    25   155   156    1
    26     9    11   ar
    27    13    14    1
    28   149   150    1
    29    10    11   ar
    30   156   158   ar
    31   156   157   ar
    32   161   158   ar
    33   161   163   ar
    34   158   160   ar
    35   157   159   ar
    36   111   109   ar
    37   111   113   ar
    38   163   164   ar
    39    11    12    1
    40   109   110   ar
    41   160   159   ar
    42   160   162   ar
    43   164   162   ar
    44    14    15    1
    45    14    17    1
    46   138   137    2
    47    16    15    2
    48   137   136    1
    49   113   114   ar
    50   110   112   ar
    51    95    94    1
    52   141   139    1
    53    17    18    1
    54    20    18   ar
    55    20    22   ar
    56    18    19   ar
    57    93    94   ar
    58    93    91   ar
    59    22    23   ar
    60    19    21   ar
    61    94    92   ar
    62   136   139    1
    63   136   135    1
    64   114   112   ar
    65   114   115    1
    66    23    21   ar
    67    91    89   ar
    68   139   140    1
    69   116   117    1
    70    61    59   ar
    71    92    90   ar
    72    89    90   ar
    73    89    88    1
    74    60    59   ar
    75    88    85    1
    76    59    58    1
    77   117   118    1
    78   117   120    1
    79   119   118    2
    80   140   142    1
    81    75    72    1
    82    71    72    1
    83    72    73    1
    84   121   120    1
    85   121   122    1
    86    85    84    1
    87    85    86    1
    88    58    55    1
    89    81    82    1
    90    81    80    1
    91    77    76    1
    92    77    78    1
    93    77    80    1
    94    54    55    1
    95   102   101   ar
    96    78    79    2
    97    25    24    1
    98    25    26    1
    99    82    83    1
   100    55    56    1
   101   123   124    2
   102   123   122    1
   103   126   124    1
   104    96    86   am
   105    96    97    1
   106    86    87    2
   107   124   125    1
   108    73    74    2
   109   101   103   ar
   110   101   100    1
   111    50    48   ar
   112    50    52   ar
   113    48    47   ar
   114    70    68   ar
   115    26    28   am
   116    26    27    2
   117    97   100    1
   118    97    98    1
   119    28    29    1
   120    56    57    2
   121    53    52    1
   122    52    51   ar
   123    47    46    1
   124    47    49   ar
   125    46    43    1
   126    68    69   ar
   127    68    67    1
   128    42    43    1
   129    42    30   am
   130    32    29    1
   131    32    33    1
   132    29    30    1
   133    98    99    2
   134    43    44    1
   135    51    49   ar
   136    67    66    1
   137    30    31    2
   138    44    45    2
   139    33    34   ar
   140    33    35   ar
   141   133   132   ar
   142    34    36   ar
   143   134   132   ar
   144   132   131    1
   145    66    63    1
   146    35    38   ar
   147    35    37   ar
   148    62    63    1
   149    36    37   ar
   150    38    40   ar
   151    63    64    1
   152    37    39   ar
   153   131   128    1
   154   128   129    1
   155   128   127    1
   156   129   130    2
   157    40    41   ar
   158    39    41   ar
   159    64    65    2
