@<TRIPOS>MOLECULE
tmp/1w1yA02.pdb
 115 110 0 0 0
SMALL
GASTEIGER

@<TRIPOS>ATOM
      1  N         14.4300   44.0320   97.7560 N.3    95  TRP95      -0.1227
      2  CA        14.6570   43.1940   96.5990 C.3    95  TRP95       0.1737
      3  C         13.4390   42.4330   96.0950 C.2    95  TRP95       0.2595
      4  O         13.0730   42.5290   94.9310 O.2    95  TRP95      -0.2718
      5  CB        15.7560   42.1750   96.9120 C.3    95  TRP95       0.0564
      6  CG        16.0230   41.3090   95.7230 C.ar   95  TRP95       0.0003
      7  CD1       15.6850   39.9900   95.5640 C.ar   95  TRP95       0.0946
      8  CD2       16.6500   41.7210   94.5070 C.ar   95  TRP95       0.0152
      9  NE1       16.0760   39.5550   94.3050 N.ar   95  TRP95      -0.2442
     10  CE2       16.6690   40.6000   93.6410 C.ar   95  TRP95       0.0810
     11  CE3       17.1970   42.9310   94.0620 C.ar   95  TRP95       0.0012
     12  CZ2       17.2160   40.6560   92.3580 C.ar   95  TRP95       0.0191
     13  CZ3       17.7430   42.9890   92.7830 C.ar   95  TRP95       0.0001
     14  CH2       17.7470   41.8510   91.9450 C.ar   95  TRP95       0.0015
     15  N         12.8000   41.6740   96.9700 N.am   96  TYR96      -0.1976
     16  CA        11.6740   40.8620   96.5060 C.3    96  TYR96       0.1639
     17  C         10.4680   41.6190   95.9680 C.2    96  TYR96       0.2290
     18  O          9.9160   41.2440   94.9400 O.2    96  TYR96      -0.2864
     19  CB        11.2870   39.8570   97.5780 C.3    96  TYR96       0.0560
     20  CG        12.4070   38.8490   97.7240 C.ar   96  TYR96      -0.0198
     21  CD1       13.2670   38.8890   98.8190 C.ar   96  TYR96      -0.0009
     22  CD2       12.6780   37.9360   96.7030 C.ar   96  TYR96      -0.0009
     23  CE1       14.3730   38.0570   98.8950 C.ar   96  TYR96       0.0417
     24  CE2       13.7810   37.1010   96.7630 C.ar   96  TYR96       0.0417
     25  CZ        14.6260   37.1710   97.8650 C.ar   96  TYR96       0.1957
     26  OH        15.7380   36.3840   97.9320 O.3    96  TYR96      -0.2866
     27  N         12.4900   44.3500   92.7450 N.3    99  ASN99      -0.1240
     28  CA        13.3940   44.0290   91.6590 C.3    99  ASN99       0.1653
     29  C         12.5500   43.8960   90.3740 C.2    99  ASN99       0.2266
     30  O         11.3110   43.7440   90.4430 O.2    99  ASN99      -0.2867
     31  CB        14.2260   42.7600   91.9750 C.3    99  ASN99       0.1155
     32  CG        13.4920   41.4710   91.6790 C.2    99  ASN99       0.2627
     33  OD1       13.5340   40.9570   90.5550 O.2    99  ASN99      -0.2716
     34  ND2       12.8150   40.9350   92.6880 N.am   99  ASN99      -0.0877
     35  N         11.7770   41.7090   88.3370 N.3   101  LEU101     -0.1245
     36  CA        10.8820   40.5610   88.2390 C.3   101  LEU101      0.1561
     37  C         10.1370   40.3090   89.5360 C.2   101  LEU101      0.2260
     38  O          9.5240   39.2560   89.7080 O.2   101  LEU101     -0.2867
     39  CB        11.6940   39.3190   87.8400 C.3   101  LEU101      0.0270
     40  CG        12.6480   39.5180   86.6510 C.3   101  LEU101      0.0019
     41  CD1       13.4200   38.2220   86.3900 C.3   101  LEU101      0.0001
     42  CD2       11.8760   39.9350   85.3990 C.3   101  LEU101      0.0001
     43  N         14.9060   48.4650   94.0250 N.3   142  GLU142     -0.1245
     44  CA        16.1320   47.8990   93.4900 C.3   142  GLU142      0.1567
     45  C         15.9080   47.3580   92.0740 C.2   142  GLU142      0.2260
     46  O         15.6390   46.1820   91.9240 O.2   142  GLU142     -0.2867
     47  CB        16.5720   46.7930   94.4490 C.3   142  GLU142      0.0388
     48  CG        16.7220   47.3470   95.8690 C.3   142  GLU142      0.1160
     49  CD        16.9440   46.2930   96.9170 C.2   142  GLU142      0.3649
     50  OE1       17.4920   45.2100   96.5900 O.co2 142  GLU142     -0.2457
     51  OE2       16.6010   46.5700   98.0920 O.co2 142  GLU142     -0.2457
     52  N         24.0190   47.4050   88.8800 N.3   189  PHE189     -0.1241
     53  CA        22.7270   48.0280   89.1230 C.3   189  PHE189      0.1605
     54  C         22.9150   49.5240   89.2200 C.2   189  PHE189      0.2264
     55  O         22.0570   50.3010   88.8020 O.2   189  PHE189     -0.2867
     56  CB        22.1130   47.4990   90.4080 C.3   189  PHE189      0.0534
     57  CG        21.3630   46.2060   90.2290 C.ar  189  PHE189     -0.0203
     58  CD1       20.3140   46.1200   89.3120 C.ar  189  PHE189     -0.0042
     59  CD2       21.6730   45.0970   91.0050 C.ar  189  PHE189     -0.0042
     60  CE1       19.5850   44.9460   89.1840 C.ar  189  PHE189     -0.0003
     61  CE2       20.9420   43.9150   90.8770 C.ar  189  PHE189     -0.0003
     62  CZ        19.9030   43.8440   89.9720 C.ar  189  PHE189     -0.0000
     63  N         24.2110   49.3460   99.3200 N.3   210  MET210     -0.1245
     64  CA        24.2210   47.9280   99.6070 C.3   210  MET210      0.1570
     65  C         25.5470   47.3880   99.0930 C.2   210  MET210      0.2261
     66  O         25.6110   46.6390   98.1030 O.2   210  MET210     -0.2867
     67  CB        23.0550   47.2700   98.8650 C.3   210  MET210      0.0387
     68  CG        21.6960   47.8910   99.2520 C.3   210  MET210      0.0595
     69  SD        20.3060   47.0670   98.4550 S.3   210  MET210     -0.1393
     70  CE        20.5340   45.4030   99.1200 C.3   210  MET210      0.0692
     71  N         26.7010   41.6360   98.9800 N.3   213  ASP213     -0.1239
     72  CA        26.0540   40.8640   97.9300 C.3   213  ASP213      0.1674
     73  C         26.8480   41.0940   96.6400 C.2   213  ASP213      0.2266
     74  O         26.2900   41.0340   95.5510 O.2   213  ASP213     -0.2867
     75  CB        24.6190   41.3010   97.6760 C.3   213  ASP213      0.1410
     76  CG        23.6660   40.7200   98.6750 C.2   213  ASP213      0.3668
     77  OD1       24.1290   39.9120   99.5070 O.co2 213  ASP213     -0.2456
     78  OD2       22.4640   41.0870   98.6330 O.co2 213  ASP213     -0.2456
     79  N         25.1650   33.1650   92.2920 N.3   218  TRP218     -0.1241
     80  CA        24.7700   33.5600   90.9470 C.3   218  TRP218      0.1605
     81  C         26.0070   33.8120   90.0790 C.2   218  TRP218      0.2264
     82  O         25.8900   33.9190   88.8600 O.2   218  TRP218     -0.2867
     83  CB        23.8790   34.8090   90.9900 C.3   218  TRP218      0.0550
     84  CG        24.4590   35.9430   91.7690 C.ar  218  TRP218      0.0003
     85  CD1       25.3280   36.8940   91.3150 C.ar  218  TRP218      0.0946
     86  CD2       24.2150   36.2460   93.1510 C.ar  218  TRP218      0.0152
     87  NE1       25.6430   37.7710   92.3280 N.ar  218  TRP218     -0.2442
     88  CE2       24.9720   37.3970   93.4660 C.ar  218  TRP218      0.0810
     89  CE3       23.4320   35.6550   94.1530 C.ar  218  TRP218      0.0012
     90  CZ2       24.9690   37.9700   94.7430 C.ar  218  TRP218      0.0191
     91  CZ3       23.4310   36.2260   95.4300 C.ar  218  TRP218      0.0001
     92  CH2       24.1960   37.3710   95.7100 C.ar  218  TRP218      0.0015
     93  N         27.2360   34.5500  102.8430 N.3   292  ARG292     -0.1245
     94  CA        26.6940   33.7940  101.7330 C.3   292  ARG292      0.1563
     95  C         27.6010   32.5740  101.5660 C.2   292  ARG292      0.2260
     96  O         28.8280   32.6910  101.5770 O.2   292  ARG292     -0.2867
     97  CB        26.6540   34.6440  100.4610 C.3   292  ARG292      0.0307
     98  CG        25.5420   35.7090  100.5310 C.3   292  ARG292      0.0489
     99  CD        25.3750   36.4650   99.1920 C.3   292  ARG292      0.2205
    100  NE        24.2280   37.3660   99.2500 N.pl3 292  ARG292     -0.0865
    101  CZ        22.9550   36.9810   99.1180 C.cat 292  ARG292      0.5346
    102  NH1       22.6480   35.6970   98.9070 N.pl3 292  ARG292      0.1354
    103  NH2       21.9750   37.8840   99.2220 N.pl3 292  ARG292      0.1354
    104  N         21.9110   28.8960   91.8740 N.3   312  GLY312     -0.1225
    105  CA        21.7580   30.3400   91.9140 C.3   312  GLY312      0.1811
    106  C         20.2980   30.7480   92.0040 C.2   312  GLY312      0.2280
    107  O         19.9860   31.8960   92.3330 O.2   312  GLY312     -0.2866
    108  N         16.3860   31.3590   93.0380 N.3   314  ASP314     -0.1239
    109  CA        15.7350   31.9260   94.2040 C.3   314  ASP314      0.1674
    110  C         14.2390   31.7160   93.9970 C.2   314  ASP314      0.2266
    111  O         13.6820   32.1710   92.9980 O.2   314  ASP314     -0.2867
    112  CB        16.0200   33.4270   94.2840 C.3   314  ASP314      0.1410
    113  CG        15.7660   33.9970   95.6640 C.2   314  ASP314      0.3668
    114  OD1       15.0110   33.3750   96.4490 O.co2 314  ASP314     -0.2456
    115  OD2       16.3220   35.0770   95.9600 O.co2 314  ASP314     -0.2456
@<TRIPOS>BOND
     1    42    40    1
     2    41    40    1
     3    40    39    1
     4    39    36    1
     5    36    35    1
     6    36    37    1
     7    55    54    2
     8    82    81    2
     9    52    53    1
    10    53    54    1
    11    53    56    1
    12    60    58   ar
    13    60    62   ar
    14    58    57   ar
    15    37    38    2
    16    62    61   ar
    17    81    80    1
    18    57    56    1
    19    57    59   ar
    20    29    30    2
    21    29    28    1
    22    33    32    2
    23    61    59   ar
    24    80    83    1
    25    80    79    1
    26    83    84    1
    27    85    84   ar
    28    85    87   ar
    29    28    31    1
    30    28    27    1
    31    32    31    1
    32    32    34   am
    33    84    86   ar
    34   104   105    1
    35   105   106    1
    36    46    45    2
    37    14    12   ar
    38    14    13   ar
    39   106   107    2
    40    45    44    1
    41    87    88   ar
    42    12    10   ar
    43    13    11   ar
    44   111   110    2
    45   108   109    1
    46    86    88   ar
    47    86    89   ar
    48    88    90   ar
    49    44    43    1
    50    44    47    1
    51    10     9   ar
    52    10     8   ar
    53   110   109    1
    54    11     8   ar
    55    89    91   ar
    56   109   112    1
    57   112   113    1
    58     9     7   ar
    59    47    48    1
    60     8     6   ar
    61    90    92   ar
    62     4     3    2
    63    18    17    2
    64    91    92   ar
    65    74    73    2
    66     7     6   ar
    67   113   115   ar
    68   113   114   ar
    69     6     5    1
    70    48    49    1
    71    17    16    1
    72     3     2    1
    73     3    15   am
    74    16    15    1
    75    16    19    1
    76    50    49   ar
    77     2     5    1
    78     2     1    1
    79    73    72    1
    80    22    24   ar
    81    22    20   ar
    82    24    25   ar
    83    49    51   ar
    84    19    20    1
    85    75    72    1
    86    75    76    1
    87    20    21   ar
    88    25    26    1
    89    25    23   ar
    90    72    71    1
    91    66    65    2
    92    69    70    1
    93    69    68    1
    94    78    76   ar
    95    76    77   ar
    96    21    23   ar
    97    67    68    1
    98    67    64    1
    99   102   101    1
   100    65    64    1
   101   101   103    1
   102   101   100    2
   103    99   100    1
   104    99    98    1
   105    63    64    1
   106    97    98    1
   107    97    94    1
   108    95    96    2
   109    95    94    1
   110    94    93    1
