@<TRIPOS>MOLECULE
tmp/1w1yB01.pdb
 152 154 0 0 0
SMALL
GASTEIGER

@<TRIPOS>ATOM
      1  N         43.0490   79.9980   43.0140 N.3    10  PHE10      -0.1241
      2  CA        43.3660   80.9520   44.0580 C.3    10  PHE10       0.1605
      3  C         44.1860   82.1070   43.4990 C.2    10  PHE10       0.2264
      4  O         45.1950   81.9000   42.8340 O.2    10  PHE10      -0.2867
      5  CB        44.1830   80.2930   45.1640 C.3    10  PHE10       0.0534
      6  CG        44.7400   81.2800   46.1380 C.ar   10  PHE10      -0.0203
      7  CD1       43.8820   82.1070   46.8680 C.ar   10  PHE10      -0.0042
      8  CD2       46.1180   81.4380   46.2820 C.ar   10  PHE10      -0.0042
      9  CE1       44.3980   83.0900   47.7340 C.ar   10  PHE10      -0.0003
     10  CE2       46.6260   82.4150   47.1460 C.ar   10  PHE10      -0.0003
     11  CZ        45.7650   83.2330   47.8620 C.ar   10  PHE10      -0.0000
     12  N         40.0540   83.9300   47.3550 N.3    49  PHE49      -0.1241
     13  CA        39.0490   83.8100   48.4190 C.3    49  PHE49       0.1605
     14  C         38.3210   85.1190   48.6590 C.2    49  PHE49       0.2264
     15  O         38.8850   86.2070   48.4740 O.2    49  PHE49      -0.2867
     16  CB        39.7120   83.5190   49.7790 C.3    49  PHE49       0.0534
     17  CG        40.1750   82.1200   49.9470 C.ar   49  PHE49      -0.0203
     18  CD1       39.2440   81.0930   50.1440 C.ar   49  PHE49      -0.0042
     19  CD2       41.5280   81.8200   49.9030 C.ar   49  PHE49      -0.0042
     20  CE1       39.6790   79.7750   50.2980 C.ar   49  PHE49      -0.0003
     21  CE2       41.9710   80.5220   50.0480 C.ar   49  PHE49      -0.0003
     22  CZ        41.0430   79.4900   50.2470 C.ar   49  PHE49      -0.0000
     23  N         36.5400   82.5430   53.0070 N.3    93  GLY93      -0.1210
     24  CA        37.3490   82.0780   54.1170 C.3    93  GLY93       0.1956
     25  C         38.6930   81.4950   53.7340 C.2    93  GLY93       0.2612
     26  O         39.5420   82.1850   53.1860 O.2    93  GLY93      -0.2717
     27  N         38.8560   80.1980   53.9880 N.am   94  GLY94      -0.1942
     28  CA        40.1290   79.5540   53.7420 C.3    94  GLY94       0.2014
     29  C         40.9060   79.6280   55.0590 C.2    94  GLY94       0.2639
     30  O         40.5330   80.3800   55.9710 O.2    94  GLY94      -0.2714
     31  N         41.9960   78.8730   55.1480 N.am   95  TRP95      -0.1959
     32  CA        42.7900   78.8100   56.3600 C.3    95  TRP95       0.1771
     33  C         43.2090   80.1640   56.9180 C.2    95  TRP95       0.2620
     34  O         42.9730   80.4830   58.0790 O.2    95  TRP95      -0.2715
     35  CB        44.0570   77.9770   56.1070 C.3    95  TRP95       0.0590
     36  CG        44.9380   77.8780   57.3230 C.ar   95  TRP95       0.0006
     37  CD1       46.1340   78.5000   57.5320 C.ar   95  TRP95       0.0946
     38  CD2       44.6660   77.1270   58.5040 C.ar   95  TRP95       0.0152
     39  NE1       46.6240   78.1850   58.7740 N.ar   95  TRP95      -0.2442
     40  CE2       45.7410   77.3400   59.3940 C.ar   95  TRP95       0.0810
     41  CE3       43.6140   76.2880   58.9010 C.ar   95  TRP95       0.0012
     42  CZ2       45.7950   76.7520   60.6520 C.ar   95  TRP95       0.0191
     43  CZ3       43.6720   75.6970   60.1680 C.ar   95  TRP95       0.0001
     44  CH2       44.7520   75.9330   61.0250 C.ar   95  TRP95       0.0015
     45  N         43.8310   80.9830   56.0900 N.am   96  TYR96      -0.1960
     46  CA        44.3190   82.2410   56.6360 C.3    96  TYR96       0.1771
     47  C         43.2940   83.2150   57.1410 C.2    96  TYR96       0.2619
     48  O         43.5040   83.8730   58.1630 O.2    96  TYR96      -0.2715
     49  CB        45.2830   82.8900   55.6520 C.3    96  TYR96       0.0574
     50  CG        46.5330   82.0420   55.5900 C.ar   96  TYR96      -0.0198
     51  CD1       46.7580   81.1740   54.5270 C.ar   96  TYR96      -0.0009
     52  CD2       47.4420   82.0350   56.6460 C.ar   96  TYR96      -0.0009
     53  CE1       47.8400   80.3220   54.5160 C.ar   96  TYR96       0.0417
     54  CE2       48.5370   81.1830   56.6400 C.ar   96  TYR96       0.0417
     55  CZ        48.7270   80.3300   55.5720 C.ar   96  TYR96       0.1957
     56  OH        49.8090   79.4740   55.5540 O.3    96  TYR96      -0.2866
     57  N         42.1740   83.3190   56.4440 N.am   97  TYR97      -0.1974
     58  CA        41.1510   84.2130   56.9280 C.3    97  TYR97       0.1639
     59  C         40.4070   83.6700   58.1240 C.2    97  TYR97       0.2290
     60  O         40.0790   84.4110   59.0460 O.2    97  TYR97      -0.2864
     61  CB        40.0840   84.4610   55.8590 C.3    97  TYR97       0.0560
     62  CG        40.4980   85.4190   54.7750 C.ar   97  TYR97      -0.0198
     63  CD1       41.3040   86.5180   55.0670 C.ar   97  TYR97      -0.0009
     64  CD2       40.0270   85.2670   53.4740 C.ar   97  TYR97      -0.0009
     65  CE1       41.6300   87.4410   54.0960 C.ar   97  TYR97       0.0417
     66  CE2       40.3400   86.1850   52.4930 C.ar   97  TYR97       0.0417
     67  CZ        41.1400   87.2700   52.8080 C.ar   97  TYR97       0.1957
     68  OH        41.4330   88.2020   51.8500 O.3    97  TYR97      -0.2866
     69  N         54.6110   79.5930   60.8310 N.3   314  ASP314     -0.1225
     70  CA        53.9900   80.1980   59.6700 C.3   314  ASP314      0.1790
     71  C         53.8620   81.6910   59.9890 C.2   314  ASP314      0.2440
     72  O         53.2220   82.0620   60.9770 O.2   314  ASP314     -0.2733
     73  CB        52.6060   79.5840   59.4650 C.3   314  ASP314      0.1423
     74  CG        52.0320   79.8720   58.0880 C.2   314  ASP314      0.3668
     75  OD1       52.5840   80.7450   57.3830 O.co2 314  ASP314     -0.2456
     76  OD2       51.0230   79.2250   57.7170 O.co2 314  ASP314     -0.2456
     77  N         54.4410   82.5680   59.1520 N.am  315  PRO315     -0.2718
     78  CA        55.2010   82.2840   57.9290 C.3   315  PRO315      0.1535
     79  C         56.5640   81.6880   58.2030 C.2   315  PRO315      0.2598
     80  O         57.0240   81.6640   59.3530 O.2   315  PRO315     -0.2715
     81  CB        55.2880   83.6550   57.2440 C.3   315  PRO315      0.0310
     82  CG        55.3580   84.5870   58.4190 C.3   315  PRO315      0.0237
     83  CD        54.3430   84.0210   59.3870 C.3   315  PRO315      0.0939
     84  N         57.1920   81.1940   57.1380 N.am  316  TYR316     -0.1974
     85  CA        58.5160   80.5980   57.2280 C.3   316  TYR316      0.1639
     86  C         59.4040   81.6670   57.8710 C.2   316  TYR316      0.2290
     87  O         59.5700   82.7540   57.3390 O.2   316  TYR316     -0.2864
     88  CB        59.0110   80.2420   55.8410 C.3   316  TYR316      0.0560
     89  CG        60.3360   79.5560   55.8700 C.ar  316  TYR316     -0.0198
     90  CD1       60.5100   78.3560   56.5640 C.ar  316  TYR316     -0.0009
     91  CD2       61.4190   80.1060   55.2040 C.ar  316  TYR316     -0.0009
     92  CE1       61.7580   77.7210   56.5860 C.ar  316  TYR316      0.0417
     93  CE2       62.6540   79.4870   55.2150 C.ar  316  TYR316      0.0417
     94  CZ        62.8200   78.3070   55.8990 C.ar  316  TYR316      0.1957
     95  OH        64.0420   77.7180   55.8710 O.3   316  TYR316     -0.2866
     96  N         57.7320   82.2760   46.8000 N.3   332  ASP332     -0.1239
     97  CA        56.7940   82.3110   47.9180 C.3   332  ASP332      0.1674
     98  C         57.4720   82.2960   49.2890 C.2   332  ASP332      0.2266
     99  O         56.8120   82.1640   50.3280 O.2   332  ASP332     -0.2867
    100  CB        55.7970   81.1580   47.7840 C.3   332  ASP332      0.1410
    101  CG        55.0760   81.1790   46.4450 C.2   332  ASP332      0.3668
    102  OD1       54.9230   82.2880   45.8770 O.co2 332  ASP332     -0.2456
    103  OD2       54.6610   80.1050   45.9630 O.co2 332  ASP332     -0.2456
    104  N         59.2470   80.1490   51.0320 N.3   334  ASP334     -0.1239
    105  CA        58.9770   79.0460   51.9370 C.3   334  ASP334      0.1674
    106  C         59.3950   77.7850   51.1930 C.2   334  ASP334      0.2266
    107  O         58.8320   77.4520   50.1520 O.2   334  ASP334     -0.2867
    108  CB        57.4790   78.9980   52.2650 C.3   334  ASP334      0.1410
    109  CG        57.1610   78.0880   53.4400 C.2   334  ASP334      0.3668
    110  OD1       57.8720   77.0670   53.6250 O.co2 334  ASP334     -0.2456
    111  OD2       56.1860   78.4010   54.1710 O.co2 334  ASP334     -0.2456
    112  N         56.7730   73.9880   51.0390 N.3   337  ILE337     -0.1245
    113  CA        55.6350   73.6510   50.1970 C.3   337  ILE337      0.1561
    114  C         56.0510   73.8730   48.7680 C.2   337  ILE337      0.2260
    115  O         56.6830   74.8790   48.4690 O.2   337  ILE337     -0.2867
    116  CB        54.4270   74.5620   50.4570 C.3   337  ILE337      0.0252
    117  CG1       54.0650   74.5530   51.9330 C.3   337  ILE337      0.0019
    118  CG2       53.2190   74.0460   49.6680 C.3   337  ILE337      0.0019
    119  CD1       53.7920   73.1750   52.4330 C.3   337  ILE337      0.0001
    120  N         43.4910   71.5410   45.6540 N.3   401  TRP401     -0.1227
    121  CA        44.0790   72.8600   45.8050 C.3   401  TRP401      0.1737
    122  C         45.4950   72.6800   45.2390 C.2   401  TRP401      0.2595
    123  O         46.2630   71.8710   45.7740 O.2   401  TRP401     -0.2718
    124  CB        44.1610   73.2200   47.2860 C.3   401  TRP401      0.0564
    125  CG        44.9470   74.4600   47.5820 C.ar  401  TRP401      0.0003
    126  CD1       46.2920   74.5510   47.7700 C.ar  401  TRP401      0.0946
    127  CD2       44.4260   75.7880   47.7320 C.ar  401  TRP401      0.0152
    128  NE1       46.6510   75.8620   48.0310 N.ar  401  TRP401     -0.2442
    129  CE2       45.5270   76.6390   48.0130 C.ar  401  TRP401      0.0810
    130  CE3       43.1310   76.3420   47.6530 C.ar  401  TRP401      0.0012
    131  CZ2       45.3840   78.0120   48.2180 C.ar  401  TRP401      0.0191
    132  CZ3       42.9840   77.7270   47.8550 C.ar  401  TRP401      0.0001
    133  CH2       44.1110   78.5410   48.1340 C.ar  401  TRP401      0.0015
    134  N         45.8720   73.4650   44.2290 N.am  402  HIS402     -0.1975
    135  CA        44.9670   74.3620   43.5030 C.3   402  HIS402      0.1656
    136  C         45.4110   74.2780   42.0410 C.2   402  HIS402      0.2291
    137  O         46.4780   73.7210   41.7520 O.2   402  HIS402     -0.2864
    138  CB        44.9770   75.8110   44.0540 C.3   402  HIS402      0.0771
    139  CG        46.2840   76.5350   43.9140 C.ar  402  HIS402      0.0820
    140  ND1       46.6700   77.1570   42.7470 N.ar  402  HIS402     -0.2267
    141  CD2       47.2730   76.7700   44.8120 C.ar  402  HIS402      0.1154
    142  CE1       47.8420   77.7400   42.9270 C.ar  402  HIS402      0.1986
    143  NE2       48.2280   77.5200   44.1740 N.ar  402  HIS402     -0.2212
    144  N         48.9830   74.7750   40.5300 N.3   405  GLN405     -0.1245
    145  CA        50.0480   73.8860   40.9440 C.3   405  GLN405      0.1566
    146  C         50.1680   72.6670   40.0600 C.2   405  GLN405      0.2260
    147  O         51.1030   71.9100   40.1910 O.2   405  GLN405     -0.2867
    148  CB        49.8360   73.4690   42.4000 C.3   405  GLN405      0.0367
    149  CG        49.9080   74.6750   43.3210 C.3   405  GLN405      0.0905
    150  CD        49.5580   74.3510   44.7350 C.2   405  GLN405      0.2608
    151  OE1       48.6480   73.5520   44.9890 O.2   405  GLN405     -0.2717
    152  NE2       50.2610   74.9780   45.6790 N.am  405  GLN405     -0.0878
@<TRIPOS>BOND
     1   146   147    2
     2   146   145    1
     3   144   145    1
     4   145   148    1
     5   137   136    2
     6   136   135    1
     7   148   149    1
     8   140   142   ar
     9   140   139   ar
    10     4     3    2
    11   142   143   ar
    12     1     2    1
    13   149   150    1
    14     3     2    1
    15   135   138    1
    16   135   134    1
    17   139   138    1
    18   139   141   ar
    19     2     5    1
    20   143   141   ar
    21   134   122   am
    22   150   151    2
    23   150   152   am
    24     5     6    1
    25   122   123    2
    26   122   121    1
    27   120   121    1
    28   121   124    1
    29   102   101   ar
    30   103   101   ar
    31     6     8   ar
    32     6     7   ar
    33     8    10   ar
    34   101   100    1
    35    96    97    1
    36     7     9   ar
    37    10    11   ar
    38   124   125    1
    39    12    13    1
    40   125   127   ar
    41   125   126   ar
    42   130   127   ar
    43   130   132   ar
    44   127   129   ar
    45     9    11   ar
    46   126   128   ar
    47   100    97    1
    48   132   133   ar
    49    97    98    1
    50   129   128   ar
    51   129   131   ar
    52   133   131   ar
    53    13    14    1
    54    13    16    1
    55   115   114    2
    56    15    14    2
    57   114   113    1
    58    98    99    2
    59   118   116    1
    60    16    17    1
    61    19    17   ar
    62    19    21   ar
    63    17    18   ar
    64    21    22   ar
    65    18    20   ar
    66   107   106    2
    67   113   116    1
    68   113   112    1
    69    22    20   ar
    70   116   117    1
    71   104   105    1
    72   106   105    1
    73    68    67    1
    74   117   119    1
    75   105   108    1
    76   108   109    1
    77    66    67   ar
    78    66    64   ar
    79    67    65   ar
    80    23    24    1
    81    26    25    2
    82   109   110   ar
    83   109   111   ar
    84    64    62   ar
    85    25    27   am
    86    25    24    1
    87    28    27    1
    88    28    29    1
    89    65    63   ar
    90    53    51   ar
    91    53    55   ar
    92    51    50   ar
    93    62    63   ar
    94    62    61    1
    95    29    31   am
    96    29    30    2
    97    31    32    1
    98    91    93   ar
    99    91    89   ar
   100    93    94   ar
   101    56    55    1
   102    55    54   ar
   103    50    49    1
   104    50    52   ar
   105    49    46    1
   106    88    89    1
   107    88    85    1
   108    61    58    1
   109    89    90   ar
   110    95    94    1
   111    94    92   ar
   112    45    46    1
   113    45    33   am
   114    35    32    1
   115    35    36    1
   116    32    33    1
   117    57    58    1
   118    57    47   am
   119    90    92   ar
   120    46    47    1
   121    54    52   ar
   122    33    34    2
   123    58    59    1
   124    84    85    1
   125    84    79   am
   126    47    48    2
   127    85    86    1
   128    81    78    1
   129    81    82    1
   130    36    37   ar
   131    36    38   ar
   132    87    86    2
   133    75    74   ar
   134    37    39   ar
   135    76    74   ar
   136    78    79    1
   137    78    77    1
   138    74    73    1
   139    59    60    2
   140    79    80    2
   141    82    83    1
   142    38    41   ar
   143    38    40   ar
   144    39    40   ar
   145    41    43   ar
   146    77    83    1
   147    77    71   am
   148    40    42   ar
   149    73    70    1
   150    70    71    1
   151    70    69    1
   152    71    72    2
   153    43    44   ar
   154    42    44   ar
