@<TRIPOS>MOLECULE
tmp/1w1zA00.pdb
 115 110 0 0 0
SMALL
GASTEIGER

@<TRIPOS>ATOM
      1  N         34.8580   71.4270  103.0140 N.3    75  PHE75      -0.1241
      2  CA        35.2690   70.1220  103.5200 C.3    75  PHE75       0.1605
      3  C         36.3450   70.2790  104.5900 C.2    75  PHE75       0.2264
      4  O         37.2870   71.0530  104.4190 O.2    75  PHE75      -0.2867
      5  CB        35.7800   69.2340  102.3850 C.3    75  PHE75       0.0534
      6  CG        34.7100   68.7070  101.4670 C.ar   75  PHE75      -0.0203
      7  CD1       34.2110   67.4230  101.6180 C.ar   75  PHE75      -0.0042
      8  CD2       34.1970   69.4940  100.4480 C.ar   75  PHE75      -0.0042
      9  CE1       33.2300   66.9370  100.7760 C.ar   75  PHE75      -0.0003
     10  CE2       33.2160   69.0160   99.6010 C.ar   75  PHE75      -0.0003
     11  CZ        32.7300   67.7330   99.7640 C.ar   75  PHE75      -0.0000
     12  N         29.8920   70.3860  104.2440 N.3   114  ASP114     -0.1239
     13  CA        29.6970   68.9670  103.9720 C.3   114  ASP114      0.1674
     14  C         29.3960   68.1960  105.2520 C.2   114  ASP114      0.2266
     15  O         30.1160   68.3230  106.2430 O.2   114  ASP114     -0.2867
     16  CB        30.9340   68.3850  103.2840 C.3   114  ASP114      0.1410
     17  CG        30.7840   66.9130  102.9590 C.2   114  ASP114      0.3668
     18  OD1       30.0840   66.5880  101.9770 O.co2 114  ASP114     -0.2456
     19  OD2       31.3720   66.0830  103.6840 O.co2 114  ASP114     -0.2456
     20  N         25.9780   64.3080  102.6100 N.3   161  SER161     -0.1217
     21  CA        26.3270   63.4710  101.4710 C.3   161  SER161      0.1889
     22  C         26.5180   62.0180  101.9000 C.2   161  SER161      0.2288
     23  O         27.1890   61.2490  101.2150 O.2   161  SER161     -0.2866
     24  CB        27.6020   63.9880  100.8000 C.3   161  SER161      0.2089
     25  OG        28.6710   64.0460  101.7290 O.3   161  SER161     -0.2183
     26  N         22.3370   65.2210   99.2930 N.3   188  TYR188     -0.1241
     27  CA        22.6980   64.3080   98.2120 C.3   188  TYR188      0.1605
     28  C         21.6490   63.2080   98.0890 C.2   188  TYR188      0.2264
     29  O         21.8190   62.1100   98.6180 O.2   188  TYR188     -0.2867
     30  CB        24.0820   63.7090   98.4420 C.3   188  TYR188      0.0534
     31  CG        25.2160   64.7070   98.3950 C.ar  188  TYR188     -0.0201
     32  CD1       25.2790   65.7650   99.2920 C.ar  188  TYR188     -0.0009
     33  CD2       26.2280   64.5920   97.4490 C.ar  188  TYR188     -0.0009
     34  CE1       26.3160   66.6790   99.2490 C.ar  188  TYR188      0.0417
     35  CE2       27.2680   65.5000   97.3990 C.ar  188  TYR188      0.0417
     36  CZ        27.3070   66.5410   98.3020 C.ar  188  TYR188      0.1957
     37  OH        28.3430   67.4480   98.2550 O.3   188  TYR188     -0.2866
     38  N         22.8660   59.8000   95.4640 N.3   191  LYS191     -0.1245
     39  CA        24.3040   59.5650   95.4140 C.3   191  LYS191      0.1561
     40  C         24.6070   58.0920   95.1520 C.2   191  LYS191      0.2260
     41  O         24.2770   57.2270   95.9610 O.2   191  LYS191     -0.2867
     42  CB        24.9730   60.0150   96.7130 C.3   191  LYS191      0.0271
     43  CG        26.4860   59.8570   96.7180 C.3   191  LYS191      0.0035
     44  CD        27.1200   60.6270   97.8630 C.3   191  LYS191      0.0206
     45  CE        28.6030   60.8620   97.6170 C.3   191  LYS191      0.1093
     46  NZ        29.4260   60.4730   98.7950 N.3   191  LYS191     -0.1314
     47  N         34.9290   58.5050   92.0740 N.3   197  TYR197     -0.1241
     48  CA        35.3530   59.2150   93.2740 C.3   197  TYR197      0.1605
     49  C         36.8360   59.0100   93.5660 C.2   197  TYR197      0.2264
     50  O         37.2980   59.3020   94.6710 O.2   197  TYR197     -0.2867
     51  CB        34.5320   58.7600   94.4840 C.3   197  TYR197      0.0534
     52  CG        33.0370   58.8600   94.2900 C.ar  197  TYR197     -0.0201
     53  CD1       32.4880   59.8130   93.4420 C.ar  197  TYR197     -0.0009
     54  CD2       32.1740   57.9990   94.9560 C.ar  197  TYR197     -0.0009
     55  CE1       31.1210   59.9060   93.2630 C.ar  197  TYR197      0.0417
     56  CE2       30.8050   58.0860   94.7830 C.ar  197  TYR197      0.0417
     57  CZ        30.2860   59.0410   93.9360 C.ar  197  TYR197      0.1957
     58  OH        28.9240   59.1310   93.7600 O.3   197  TYR197     -0.2866
     59  N         39.4280   61.8740   94.7840 N.3   200  PHE200     -0.1241
     60  CA        38.9350   62.6460   95.9190 C.3   200  PHE200      0.1605
     61  C         39.4400   62.0990   97.2490 C.2   200  PHE200      0.2264
     62  O         39.7230   62.8640   98.1730 O.2   200  PHE200     -0.2867
     63  CB        37.4030   62.6770   95.9300 C.3   200  PHE200      0.0534
     64  CG        36.8180   63.6190   96.9520 C.ar  200  PHE200     -0.0203
     65  CD1       36.3130   63.1470   98.1530 C.ar  200  PHE200     -0.0042
     66  CD2       36.7730   64.9830   96.7120 C.ar  200  PHE200     -0.0042
     67  CE1       35.7780   64.0100   99.0900 C.ar  200  PHE200     -0.0003
     68  CE2       36.2380   65.8530   97.6420 C.ar  200  PHE200     -0.0003
     69  CZ        35.7350   65.3670   98.8340 C.ar  200  PHE200     -0.0000
     70  N         24.6250   62.6360   92.1830 N.3   244  LYS244     -0.1245
     71  CA        26.0730   62.4490   92.2260 C.3   244  LYS244      0.1561
     72  C         26.4650   61.0330   91.8280 C.2   244  LYS244      0.2260
     73  O         25.9530   60.0670   92.4030 O.2   244  LYS244     -0.2867
     74  CB        26.5930   62.7710   93.6280 C.3   244  LYS244      0.0271
     75  CG        28.0840   62.5490   93.8150 C.3   244  LYS244      0.0035
     76  CD        28.6340   63.4240   94.9300 C.3   244  LYS244      0.0206
     77  CE        30.0970   63.1150   95.2050 C.3   244  LYS244      0.1093
     78  NZ        30.4410   63.3170   96.6390 N.3   244  LYS244     -0.1314
     79  N         26.8480   67.1410   90.9910 N.3   267  TYR267     -0.1241
     80  CA        28.2570   67.1650   91.3690 C.3   267  TYR267      0.1605
     81  C         29.1610   66.7130   90.2250 C.2   267  TYR267      0.2264
     82  O         29.0330   65.5960   89.7260 O.2   267  TYR267     -0.2867
     83  CB        28.5000   66.2860   92.5980 C.3   267  TYR267      0.0534
     84  CG        29.5980   66.7900   93.5060 C.ar  267  TYR267     -0.0201
     85  CD1       29.3120   67.2420   94.7880 C.ar  267  TYR267     -0.0009
     86  CD2       30.9220   66.8170   93.0870 C.ar  267  TYR267     -0.0009
     87  CE1       30.3090   67.7050   95.6260 C.ar  267  TYR267      0.0417
     88  CE2       31.9270   67.2770   93.9190 C.ar  267  TYR267      0.0417
     89  CZ        31.6150   67.7210   95.1860 C.ar  267  TYR267      0.1957
     90  OH        32.6110   68.1810   96.0190 O.3   267  TYR267     -0.2866
     91  N         32.2140   65.3140   89.8530 N.3   269  VAL269     -0.1231
     92  CA        33.1090   64.6050   90.7580 C.3   269  VAL269      0.1692
     93  C         34.5550   64.6320   90.2710 C.2   269  VAL269      0.2592
     94  O         34.8340   64.9540   89.1180 O.2   269  VAL269     -0.2718
     95  CB        32.6830   63.1350   90.9520 C.3   269  VAL269      0.0266
     96  CG1       31.3480   63.0560   91.6810 C.3   269  VAL269      0.0020
     97  CG2       32.6160   62.4200   89.6110 C.3   269  VAL269      0.0020
     98  N         35.4620   64.2830   91.1770 N.am  270  SER270     -0.1952
     99  CA        36.8960   64.3220   90.9370 C.3   270  SER270      0.1924
    100  C         37.2800   63.5890   89.6570 C.2   270  SER270      0.2314
    101  O         38.1800   64.0210   88.9370 O.2   270  SER270     -0.2863
    102  CB        37.6430   63.7100   92.1270 C.3   270  SER270      0.2116
    103  OG        36.9930   62.5370   92.5840 O.3   270  SER270     -0.2180
    104  N         34.9340   71.6270   90.5570 N.3   309  TYR309     -0.1241
    105  CA        36.2970   72.0490   90.8550 C.3   309  TYR309      0.1605
    106  C         36.8390   72.9730   89.7710 C.2   309  TYR309      0.2264
    107  O         37.9060   73.5650   89.9250 O.2   309  TYR309     -0.2867
    108  CB        37.2060   70.8260   91.0160 C.3   309  TYR309      0.0534
    109  CG        36.7170   69.8610   92.0740 C.ar  309  TYR309     -0.0201
    110  CD1       36.8380   70.1660   93.4240 C.ar  309  TYR309     -0.0009
    111  CD2       36.1330   68.6510   91.7250 C.ar  309  TYR309     -0.0009
    112  CE1       36.3940   69.2910   94.3960 C.ar  309  TYR309      0.0417
    113  CE2       35.6850   67.7700   92.6920 C.ar  309  TYR309      0.0417
    114  CZ        35.8190   68.0960   94.0240 C.ar  309  TYR309      0.1957
    115  OH        35.3750   67.2230   94.9920 O.3   309  TYR309     -0.2866
@<TRIPOS>BOND
     1   101   100    2
     2    94    93    2
     3    97    95    1
     4   100    99    1
     5    82    81    2
     6   106   107    2
     7   106   105    1
     8    91    92    1
     9    81    80    1
    10    93    92    1
    11    93    98   am
    12   104   105    1
    13    92    95    1
    14   105   108    1
    15    99    98    1
    16    99   102    1
    17    95    96    1
    18    79    80    1
    19   108   109    1
    20    80    83    1
    21   111   109   ar
    22   111   113   ar
    23    72    71    1
    24    72    73    2
    25   109   110   ar
    26    47    48    1
    27   102   103    1
    28    70    71    1
    29    71    74    1
    30    83    84    1
    31   113   114   ar
    32    86    84   ar
    33    86    88   ar
    34    55    53   ar
    35    55    57   ar
    36    48    49    1
    37    48    51    1
    38   110   112   ar
    39    53    52   ar
    40    84    85   ar
    41    49    50    2
    42    74    75    1
    43    58    57    1
    44    75    76    1
    45    88    89   ar
    46    57    56   ar
    47   114   112   ar
    48   114   115    1
    49    52    51    1
    50    52    54   ar
    51    56    54   ar
    52    59    60    1
    53    85    87   ar
    54    76    77    1
    55    40    39    1
    56    40    41    2
    57    89    87   ar
    58    89    90    1
    59    77    78    1
    60    39    38    1
    61    39    42    1
    62    60    63    1
    63    60    61    1
    64    63    64    1
    65    66    64   ar
    66    66    68   ar
    67    42    43    1
    68    43    44    1
    69    64    65   ar
    70    61    62    2
    71    35    33   ar
    72    35    36   ar
    73    33    31   ar
    74    45    44    1
    75    45    46    1
    76    68    69   ar
    77    28    27    1
    78    28    29    2
    79    65    67   ar
    80    27    30    1
    81    27    26    1
    82    37    36    1
    83    36    34   ar
    84    31    30    1
    85    31    32   ar
    86    69    67   ar
    87    34    32   ar
    88    10    11   ar
    89    10     8   ar
    90    11     9   ar
    91     8     6   ar
    92     9     7   ar
    93    24    21    1
    94    24    25    1
    95    23    22    2
    96     6     7   ar
    97     6     5    1
    98    21    22    1
    99    21    20    1
   100    18    17   ar
   101     5     2    1
   102    17    16    1
   103    17    19   ar
   104     1     2    1
   105    16    13    1
   106     2     3    1
   107    13    12    1
   108    13    14    1
   109     4     3    2
   110    14    15    2
