@<TRIPOS>MOLECULE
tmp/1w22B01.pdb
 127 124 0 0 0
SMALL
GASTEIGER

@<TRIPOS>ATOM
      1  N         -6.0190   18.8240   21.4450 N.3    19  LYS19      -0.1245
      2  CA        -4.6550   18.6370   21.9330 C.3    19  LYS19       0.1561
      3  C         -4.1040   19.7430   22.8190 C.2    19  LYS19       0.2260
      4  O         -3.0170   19.6150   23.3690 O.2    19  LYS19      -0.2867
      5  CB        -3.7070   18.4140   20.7500 C.3    19  LYS19       0.0271
      6  CG        -3.3540   16.9450   20.5070 C.3    19  LYS19       0.0035
      7  CD        -4.5740   16.0950   20.1900 C.3    19  LYS19       0.0206
      8  CE        -4.3110   14.6270   20.5160 C.3    19  LYS19       0.1093
      9  NZ        -3.0590   14.1340   19.8780 N.3    19  LYS19      -0.1314
     10  N         -2.3080   12.6850   15.4080 N.3    77  ASP77      -0.1239
     11  CA        -1.6520   13.9150   15.8170 C.3    77  ASP77       0.1674
     12  C         -2.4820   15.1070   15.3620 C.2    77  ASP77       0.2266
     13  O         -2.5560   16.1310   16.0460 O.2    77  ASP77      -0.2867
     14  CB        -0.2620   13.9790   15.1860 C.3    77  ASP77       0.1410
     15  CG         0.5560   12.7290   15.4590 C.2    77  ASP77       0.3668
     16  OD1        0.8790   12.4670   16.6380 O.co2  77  ASP77      -0.2456
     17  OD2        0.8650   11.9970   14.4960 O.co2  77  ASP77      -0.2456
     18  N          1.2920   27.9570   14.0550 N.3   117  TRP117     -0.1227
     19  CA         1.3130   26.5640   13.6170 C.3   117  TRP117      0.1737
     20  C          2.1760   26.4330   12.3650 C.2   117  TRP117      0.2595
     21  O          1.6860   26.4280   11.2440 O.2   117  TRP117     -0.2718
     22  CB        -0.1220   26.0820   13.4150 C.3   117  TRP117      0.0564
     23  CG        -0.8760   26.2610   14.6790 C.ar  117  TRP117      0.0003
     24  CD1       -1.8390   27.1940   14.9140 C.ar  117  TRP117      0.0946
     25  CD2       -0.6320   25.6210   15.9420 C.ar  117  TRP117      0.0152
     26  NE1       -2.2090   27.1950   16.2270 N.ar  117  TRP117     -0.2442
     27  CE2       -1.4850   26.2400   16.8850 C.ar  117  TRP117      0.0810
     28  CE3        0.2270   24.5980   16.3750 C.ar  117  TRP117      0.0012
     29  CZ2       -1.5100   25.8690   18.2270 C.ar  117  TRP117      0.0191
     30  CZ3        0.1960   24.2330   17.7200 C.ar  117  TRP117      0.0001
     31  CH2       -0.6650   24.8680   18.6230 C.ar  117  TRP117      0.0015
     32  N          3.4810   26.3250   12.6030 N.am  118  HIS118     -0.1961
     33  CA         4.5110   26.2590   11.5720 C.3   118  HIS118      0.1787
     34  C          4.7820   24.9450   10.8250 C.2   118  HIS118      0.2620
     35  O          5.6350   24.9120    9.9190 O.2   118  HIS118     -0.2715
     36  CB         5.8250   26.7490   12.1810 C.3   118  HIS118      0.0785
     37  CG         6.2640   25.9700   13.3890 C.ar  118  HIS118      0.0821
     38  ND1        7.5060   26.1340   13.9660 N.ar  118  HIS118     -0.2267
     39  CD2        5.6320   25.0230   14.1260 C.ar  118  HIS118      0.1154
     40  CE1        7.6190   25.3230   15.0030 C.ar  118  HIS118      0.1986
     41  NE2        6.4970   24.6370   15.1220 N.ar  118  HIS118     -0.2212
     42  N          4.0910   23.8690   11.1950 N.am  119  HIS119     -0.1973
     43  CA         4.3240   22.5810   10.5320 C.3   119  HIS119      0.1656
     44  C          3.4320   22.3000    9.3180 C.2   119  HIS119      0.2291
     45  O          3.8420   21.5810    8.3980 O.2   119  HIS119     -0.2864
     46  CB         4.1640   21.4180   11.5190 C.3   119  HIS119      0.0771
     47  CG         5.1100   21.4610   12.6770 C.ar  119  HIS119      0.0820
     48  ND1        6.4760   21.5540   12.5200 N.ar  119  HIS119     -0.2267
     49  CD2        4.8880   21.3820   14.0110 C.ar  119  HIS119      0.1154
     50  CE1        7.0540   21.5300   13.7080 C.ar  119  HIS119      0.1986
     51  NE2        6.1130   21.4250   14.6300 N.ar  119  HIS119     -0.2212
     52  N          1.8620   17.7970   12.7260 N.3   127  GLY127     -0.1210
     53  CA         2.1450   18.2250   14.0850 C.3   127  GLY127      0.1956
     54  C          1.1400   19.1630   14.7340 C.2   127  GLY127      0.2611
     55  O          1.5020   20.2690   15.1500 O.2   127  GLY127     -0.2717
     56  N         -0.1140   18.7270   14.8320 N.am  128  PHE128     -0.1976
     57  CA        -1.1780   19.5340   15.4460 C.3   128  PHE128      0.1639
     58  C         -1.5460   20.7760   14.6090 C.2   128  PHE128      0.2290
     59  O         -2.4130   21.5620   14.9980 O.2   128  PHE128     -0.2864
     60  CB        -0.7600   20.0040   16.8530 C.3   128  PHE128      0.0560
     61  CG        -0.5510   18.8920   17.8480 C.ar  128  PHE128     -0.0200
     62  CD1       -0.5000   17.5640   17.4450 C.ar  128  PHE128     -0.0042
     63  CD2       -0.4020   19.1820   19.1980 C.ar  128  PHE128     -0.0042
     64  CE1       -0.3050   16.5390   18.3760 C.ar  128  PHE128     -0.0003
     65  CE2       -0.2080   18.1670   20.1320 C.ar  128  PHE128     -0.0003
     66  CZ        -0.1600   16.8400   19.7180 C.ar  128  PHE128     -0.0000
     67  N         10.5230   28.1760   18.4210 N.3   154  ASP154     -0.1239
     68  CA         9.7740   27.0410   18.9420 C.3   154  ASP154      0.1674
     69  C         10.7690   25.9110   19.2230 C.2   154  ASP154      0.2266
     70  O         11.8870   25.9450   18.7300 O.2   154  ASP154     -0.2867
     71  CB         8.7730   26.5820   17.8840 C.3   154  ASP154      0.1410
     72  CG         7.7690   25.5970   18.4220 C.2   154  ASP154      0.3668
     73  OD1        6.6670   26.0370   18.8400 O.co2 154  ASP154     -0.2456
     74  OD2        8.0940   24.3910   18.4250 O.co2 154  ASP154     -0.2456
     75  N         10.5920   22.9760   18.1590 N.3   156  HIS156     -0.1241
     76  CA        10.6560   22.2230   16.9040 C.3   156  HIS156      0.1621
     77  C         10.9830   23.0300   15.6380 C.2   156  HIS156      0.2264
     78  O         10.5580   24.1670   15.4810 O.2   156  HIS156     -0.2867
     79  CB         9.3200   21.5230   16.6310 C.3   156  HIS156      0.0745
     80  CG         8.8450   20.6240   17.7280 C.ar  156  HIS156      0.0817
     81  ND1        8.3490   21.1000   18.9220 N.ar  156  HIS156     -0.2268
     82  CD2        8.7360   19.2750   17.7880 C.ar  156  HIS156      0.1154
     83  CE1        7.9530   20.0860   19.6700 C.ar  156  HIS156      0.1986
     84  NE2        8.1750   18.9670   19.0040 N.ar  156  HIS156     -0.2212
     85  N         10.9160   14.9680   16.3630 N.3   184  PHE184     -0.1241
     86  CA        10.0440   15.6160   15.3780 C.3   184  PHE184      0.1605
     87  C         10.5300   17.0170   14.9750 C.2   184  PHE184      0.2264
     88  O         10.9170   17.8160   15.8310 O.2   184  PHE184     -0.2867
     89  CB         8.6250   15.6940   15.9660 C.3   184  PHE184      0.0534
     90  CG         7.5680   16.0910   14.9720 C.ar  184  PHE184     -0.0203
     91  CD1        7.3630   17.4210   14.6420 C.ar  184  PHE184     -0.0042
     92  CD2        6.7970   15.1250   14.3430 C.ar  184  PHE184     -0.0042
     93  CE1        6.4120   17.7790   13.7010 C.ar  184  PHE184     -0.0003
     94  CE2        5.8410   15.4770   13.4000 C.ar  184  PHE184     -0.0003
     95  CZ         5.6500   16.8070   13.0780 C.ar  184  PHE184     -0.0000
     96  N          7.4070   25.8210   24.1970 N.3   243  ASP243     -0.1239
     97  CA         7.7160   24.4370   24.5510 C.3   243  ASP243      0.1674
     98  C          9.2300   24.1950   24.7060 C.2   243  ASP243      0.2266
     99  O          9.7120   23.0670   24.5840 O.2   243  ASP243     -0.2867
    100  CB         7.1050   23.4700   23.5370 C.3   243  ASP243      0.1410
    101  CG         7.4900   23.7870   22.1020 C.2   243  ASP243      0.3668
    102  OD1        8.3560   24.6480   21.8560 O.co2 243  ASP243     -0.2456
    103  OD2        6.9220   23.1510   21.2060 O.co2 243  ASP243     -0.2456
    104  N          7.5420   18.2560   27.1570 N.3   250  MET250     -0.1245
    105  CA         8.4770   17.9720   26.0880 C.3   250  MET250      0.1570
    106  C          9.8350   17.6930   26.7170 C.2   250  MET250      0.2261
    107  O         10.6940   17.0510   26.1160 O.2   250  MET250     -0.2867
    108  CB         8.5770   19.1730   25.1530 C.3   250  MET250      0.0387
    109  CG         8.5150   18.8200   23.6800 C.3   250  MET250      0.0595
    110  SD         6.8470   18.5000   23.1370 S.3   250  MET250     -0.1393
    111  CE         7.1110   17.3510   21.8530 C.3   250  MET250      0.0692
    112  N          4.0060   26.0350   20.1140 N.3   280  GLY280     -0.1225
    113  CA         3.9090   24.9680   21.0990 C.3   280  GLY280      0.1811
    114  C          3.9590   25.4720   22.5300 C.2   280  GLY280      0.2280
    115  O          4.2790   26.6230   22.7790 O.2   280  GLY280     -0.2866
    116  N          3.0950   22.9090   26.0770 N.3   282  TYR282     -0.1241
    117  CA         2.2080   21.9120   26.6750 C.3   282  TYR282      0.1605
    118  C          2.0430   21.9070   28.2020 C.2   282  TYR282      0.2264
    119  O          1.3850   21.0370   28.7910 O.2   282  TYR282     -0.2867
    120  CB         2.6180   20.5590   26.1390 C.3   282  TYR282      0.0534
    121  CG         2.7060   20.6710   24.6480 C.ar  282  TYR282     -0.0201
    122  CD1        3.9390   20.7820   24.0040 C.ar  282  TYR282     -0.0009
    123  CD2        1.5460   20.7710   23.8790 C.ar  282  TYR282     -0.0009
    124  CE1        4.0070   20.9870   22.6330 C.ar  282  TYR282      0.0417
    125  CE2        1.6070   20.9820   22.5190 C.ar  282  TYR282      0.0417
    126  CZ         2.8310   21.0930   21.8920 C.ar  282  TYR282      0.1957
    127  OH         2.8470   21.3690   20.5350 O.3   282  TYR282     -0.2866
@<TRIPOS>BOND
     1    45    44    2
     2    44    43    1
     3    35    34    2
     4    43    42    1
     5    43    46    1
     6    34    42   am
     7    34    33    1
     8    21    20    2
     9    46    47    1
    10    33    36    1
    11    33    32    1
    12    36    37    1
    13    20    32   am
    14    20    19    1
    15    48    47   ar
    16    48    50   ar
    17    47    49   ar
    18    52    53    1
    19    95    94   ar
    20    95    93   ar
    21    37    38   ar
    22    37    39   ar
    23    94    92   ar
    24    22    19    1
    25    22    23    1
    26    19    18    1
    27    93    91   ar
    28    50    51   ar
    29    38    40   ar
    30    49    51   ar
    31    53    54    1
    32    39    41   ar
    33    92    90   ar
    34    17    15   ar
    35    58    59    2
    36    58    57    1
    37    91    90   ar
    38    23    24   ar
    39    23    25   ar
    40    54    56   am
    41    54    55    2
    42    56    57    1
    43    24    26   ar
    44    90    89    1
    45    87    86    1
    46    87    88    2
    47    40    41   ar
    48    14    15    1
    49    14    11    1
    50    12    11    1
    51    12    13    2
    52    86    89    1
    53    86    85    1
    54    10    11    1
    55    57    60    1
    56    15    16   ar
    57    78    77    2
    58    77    76    1
    59    25    28   ar
    60    25    27   ar
    61    26    27   ar
    62    28    30   ar
    63    79    76    1
    64    79    80    1
    65    60    61    1
    66    27    29   ar
    67    76    75    1
    68    62    61   ar
    69    62    64   ar
    70    30    31   ar
    71    80    82   ar
    72    80    81   ar
    73    82    84   ar
    74    61    63   ar
    75    71    72    1
    76    71    68    1
    77    29    31   ar
    78    64    66   ar
    79    67    68    1
    80    72    74   ar
    81    72    73   ar
    82    70    69    2
    83    81    83   ar
    84    68    69    1
    85    84    83   ar
    86    63    65   ar
    87    66    65   ar
    88     9     8    1
    89   112   113    1
    90     7     6    1
    91     7     8    1
    92     6     5    1
    93   127   126    1
    94     5     2    1
    95   113   114    1
    96   103   101   ar
    97     1     2    1
    98   111   110    1
    99   102   101   ar
   100   126   125   ar
   101   126   124   ar
   102     2     3    1
   103   101   100    1
   104   125   123   ar
   105   114   115    2
   106   124   122   ar
   107     3     4    2
   108   110   109    1
   109   100    97    1
   110   109   108    1
   111   123   121   ar
   112   122   121   ar
   113    96    97    1
   114    97    98    1
   115    99    98    2
   116   121   120    1
   117   108   105    1
   118   116   117    1
   119   105   106    1
   120   105   104    1
   121   107   106    2
   122   120   117    1
   123   117   118    1
   124   118   119    2
