@<TRIPOS>MOLECULE
tmp/1w25A00.pdb
 103 97 0 0 0
SMALL
GASTEIGER

@<TRIPOS>ATOM
      1  N        101.2760   20.5050   77.0290 N.3   293  LEU293     -0.1245
      2  CA       101.9870   19.5750   77.9140 C.3   293  LEU293      0.1561
      3  C        102.4080   18.2590   77.2480 C.2   293  LEU293      0.2260
      4  O        103.5630   17.8530   77.3800 O.2   293  LEU293     -0.2867
      5  CB       101.1300   19.2550   79.1440 C.3   293  LEU293      0.0270
      6  CG       101.7970   18.4550   80.2710 C.3   293  LEU293      0.0019
      7  CD1      102.9660   19.2310   80.8780 C.3   293  LEU293      0.0001
      8  CD2      100.7750   18.0910   81.3440 C.3   293  LEU293      0.0001
      9  N         94.7020    8.9020   89.2880 N.3   330  PHE330     -0.1227
     10  CA        95.5800    9.9920   88.8750 C.3   330  PHE330      0.1736
     11  C         95.4950   11.1990   89.8120 C.2   330  PHE330      0.2595
     12  O         96.5150   11.8140   90.1200 O.2   330  PHE330     -0.2718
     13  CB        95.3190   10.4330   87.4330 C.3   330  PHE330      0.0547
     14  CG        96.2630   11.4980   86.9690 C.ar  330  PHE330     -0.0202
     15  CD1       97.5300   11.1650   86.5200 C.ar  330  PHE330     -0.0042
     16  CD2       95.9060   12.8380   87.0330 C.ar  330  PHE330     -0.0042
     17  CE1       98.4190   12.1480   86.1120 C.ar  330  PHE330     -0.0003
     18  CE2       96.7880   13.8280   86.6300 C.ar  330  PHE330     -0.0003
     19  CZ        98.0480   13.4840   86.1670 C.ar  330  PHE330     -0.0000
     20  N         94.2900   11.5450   90.2550 N.am  331  LYS331     -0.1980
     21  CA        94.1310   12.6440   91.2070 C.3   331  LYS331      0.1596
     22  C         94.8870   12.3440   92.5030 C.2   331  LYS331      0.2287
     23  O         95.4990   13.2440   93.0820 O.2   331  LYS331     -0.2864
     24  CB        92.6500   12.9470   91.4730 C.3   331  LYS331      0.0301
     25  CG        91.9570   13.6530   90.2980 C.3   331  LYS331      0.0086
     26  CD        90.6070   14.2500   90.6970 C.3   331  LYS331      0.0490
     27  CE        89.9550   14.9920   89.5350 C.2   331  LYS331      0.0957
     28  NZ        88.8380   15.1440   89.0460 N.2   331  LYS331     -0.1514
     29  N         98.4690   13.3040   92.0370 N.3   334  ASN334     -0.1240
     30  CA        98.6630   14.7490   92.1710 C.3   334  ASN334      0.1653
     31  C         98.6730   15.2350   93.6230 C.2   334  ASN334      0.2266
     32  O         99.1830   16.3210   93.8930 O.2   334  ASN334     -0.2867
     33  CB        97.6010   15.5280   91.3760 C.3   334  ASN334      0.1155
     34  CG        98.0130   15.7860   89.9340 C.2   334  ASN334      0.2627
     35  OD1       99.1260   15.4570   89.5220 O.2   334  ASN334     -0.2716
     36  ND2       97.1150   16.3910   89.1620 N.am  334  ASN334     -0.0877
     37  N        102.3410   18.0300   91.6190 N.3   339  HIS339     -0.1241
     38  CA       101.7950   18.2680   90.2730 C.3   339  HIS339      0.1621
     39  C        102.8860   18.1670   89.2090 C.2   339  HIS339      0.2264
     40  O        102.5890   17.8960   88.0490 O.2   339  HIS339     -0.2867
     41  CB       101.1260   19.6450   90.1670 C.3   339  HIS339      0.0745
     42  CG        99.6760   19.6510   90.5420 C.ar  339  HIS339      0.0817
     43  ND1       98.6660   19.6510   89.6010 N.ar  339  HIS339     -0.2268
     44  CD2       99.0650   19.6730   91.7510 C.ar  339  HIS339      0.1154
     45  CE1       97.4960   19.6660   90.2170 C.ar  339  HIS339      0.1986
     46  NE2       97.7110   19.6770   91.5210 N.ar  339  HIS339     -0.2212
     47  N        103.0150   14.6980   88.4980 N.3   342  GLY342     -0.1210
     48  CA       101.8260   14.4720   87.6790 C.3   342  GLY342      0.1956
     49  C        102.0590   14.7380   86.2030 C.2   342  GLY342      0.2611
     50  O        101.6100   13.9700   85.3580 O.2   342  GLY342     -0.2717
     51  N        102.7620   15.8280   85.8970 N.am  343  ASP343     -0.1973
     52  CA       103.1220   16.1640   84.5130 C.3   343  ASP343      0.1709
     53  C        103.9910   15.0820   83.8940 C.2   343  ASP343      0.2293
     54  O        103.7740   14.6770   82.7490 O.2   343  ASP343     -0.2864
     55  CB       103.8820   17.4940   84.4470 C.3   343  ASP343      0.1436
     56  CG       103.0210   18.6870   84.8110 C.2   343  ASP343      0.3671
     57  OD1      101.7860   18.5460   84.8500 O.co2 343  ASP343     -0.2456
     58  OD2      103.4990   19.8120   85.0710 O.co2 343  ASP343     -0.2456
     59  N        101.8140   12.2130   82.9590 N.3   346  LEU346     -0.1245
     60  CA       101.0140   12.5560   81.7780 C.3   346  LEU346      0.1561
     61  C        101.8390   12.5320   80.4870 C.2   346  LEU346      0.2260
     62  O        101.3720   12.0230   79.4710 O.2   346  LEU346     -0.2867
     63  CB       100.3250   13.9160   81.9470 C.3   346  LEU346      0.0270
     64  CG        99.0880   13.9440   82.8540 C.3   346  LEU346      0.0019
     65  CD1       98.6970   15.3780   83.1910 C.3   346  LEU346      0.0001
     66  CD2       97.9070   13.2170   82.2240 C.3   346  LEU346      0.0001
     67  N         94.5430   14.5330   74.2080 N.3   365  ARG365     -0.1245
     68  CA        94.2270   14.9910   75.5390 C.3   365  ARG365      0.1563
     69  C         92.7670   15.4250   75.4610 C.2   365  ARG365      0.2260
     70  O         92.4520   16.5130   74.9730 O.2   365  ARG365     -0.2867
     71  CB        95.1440   16.1490   75.9510 C.3   365  ARG365      0.0307
     72  CG        94.9500   16.5870   77.3890 C.3   365  ARG365      0.0489
     73  CD        95.8860   15.9320   78.4040 C.3   365  ARG365      0.2205
     74  NE        96.8790   16.8990   78.8720 N.pl3 365  ARG365     -0.0865
     75  CZ        96.7090   17.7430   79.8880 C.cat 365  ARG365      0.5346
     76  NH1       95.5880   17.7430   80.5920 N.pl3 365  ARG365      0.1354
     77  NH2       97.6780   18.5880   80.2110 N.pl3 365  ARG365      0.1354
     78  N         90.5990   15.4920   78.1180 N.3   367  GLY367     -0.1210
     79  CA        90.4170   16.3800   79.2590 C.3   367  GLY367      0.1956
     80  C         91.7070   16.4760   80.0490 C.2   367  GLY367      0.2612
     81  O         92.7630   16.0680   79.5800 O.2   367  GLY367     -0.2717
     82  N         91.6180   17.0080   81.2590 N.am  368  GLY368     -0.1942
     83  CA        92.7830   17.1660   82.1220 C.3   368  GLY368      0.2014
     84  C         93.5230   15.8690   82.3950 C.2   368  GLY368      0.2639
     85  O         94.7520   15.8210   82.3320 O.2   368  GLY368     -0.2714
     86  N         92.7580   14.8210   82.6980 N.am  369  GLU369     -0.1963
     87  CA        93.3070   13.5170   83.0820 C.3   369  GLU369      0.1733
     88  C         92.9070   12.3610   82.1590 C.2   369  GLU369      0.2616
     89  O         93.4470   11.2610   82.2870 O.2   369  GLU369     -0.2715
     90  CB        92.8990   13.1740   84.5220 C.3   369  GLU369      0.0429
     91  CG        91.4110   13.3110   84.8230 C.3   369  GLU369      0.1163
     92  CD        91.0210   12.6740   86.1490 C.2   369  GLU369      0.3649
     93  OE1       91.2810   11.4600   86.3150 O.co2 369  GLU369     -0.2457
     94  OE2       90.4500   13.3740   87.0210 O.co2 369  GLU369     -0.2457
     95  N         91.9720   12.6050   81.2420 N.am  370  GLU370     -0.1977
     96  CA        91.4630   11.5540   80.3510 C.3   370  GLU370      0.1602
     97  C         91.9640   11.7310   78.9180 C.2   370  GLU370      0.2287
     98  O         92.1270   12.8460   78.4330 O.2   370  GLU370     -0.2864
     99  CB        89.9260   11.4850   80.3810 C.3   370  GLU370      0.0415
    100  CG        89.1970   12.8230   80.2660 C.3   370  GLU370      0.1163
    101  CD        88.7320   13.3720   81.6070 C.2   370  GLU370      0.3649
    102  OE1       87.9390   12.6800   82.2870 O.co2 370  GLU370     -0.2457
    103  OE2       89.1410   14.4970   81.9770 O.co2 370  GLU370     -0.2457
@<TRIPOS>BOND
     1    67    68    1
     2    70    69    2
     3    69    68    1
     4    68    71    1
     5    71    72    1
     6     1     2    1
     7     3     4    2
     8     3     2    1
     9    72    73    1
    10     2     5    1
    11    78    79    1
    12    73    74    1
    13    98    97    2
    14    74    75    2
    15    97    96    1
    16     5     6    1
    17    79    80    1
    18    62    61    2
    19    81    80    2
    20    75    77    1
    21    75    76    1
    22    80    82   am
    23   100    99    1
    24   100   101    1
    25     6     7    1
    26     6     8    1
    27    96    99    1
    28    96    95    1
    29    61    60    1
    30    95    88   am
    31    82    83    1
    32   101   103   ar
    33   101   102   ar
    34    60    63    1
    35    60    59    1
    36    63    64    1
    37    83    84    1
    38    88    89    2
    39    88    87    1
    40    66    64    1
    41    85    84    2
    42    84    86   am
    43    86    87    1
    44    54    53    2
    45    64    65    1
    46    87    90    1
    47    53    52    1
    48    55    52    1
    49    55    56    1
    50    52    51    1
    51    90    91    1
    52    56    57   ar
    53    56    58   ar
    54    91    92    1
    55    50    49    2
    56    51    49   am
    57    17    19   ar
    58    17    15   ar
    59    92    93   ar
    60    92    94   ar
    61    19    18   ar
    62    49    48    1
    63    15    14   ar
    64    18    16   ar
    65    14    16   ar
    66    14    13    1
    67    13    10    1
    68    48    47    1
    69    40    39    2
    70    10     9    1
    71    10    11    1
    72    28    27    2
    73    36    34   am
    74    39    38    1
    75    35    34    2
    76    27    26    1
    77    43    45   ar
    78    43    42   ar
    79    11    12    2
    80    11    20   am
    81    34    33    1
    82    41    38    1
    83    41    42    1
    84    45    46   ar
    85    20    21    1
    86    38    37    1
    87    25    26    1
    88    25    24    1
    89    42    44   ar
    90    21    24    1
    91    21    22    1
    92    33    30    1
    93    46    44   ar
    94    29    30    1
    95    30    31    1
    96    22    23    2
    97    31    32    2
