@<TRIPOS>MOLECULE
tmp/1w27B00.pdb
 107 100 0 0 0
SMALL
GASTEIGER

@<TRIPOS>ATOM
      1  N          8.6570   69.9960   54.6020 N.3    92  PHE92      -0.1241
      2  CA         7.9870   69.6270   53.3460 C.3    92  PHE92       0.1605
      3  C          7.0840   70.7410   52.7990 C.2    92  PHE92       0.2264
      4  O          6.8300   70.7880   51.5900 O.2    92  PHE92      -0.2867
      5  CB         7.2160   68.2950   53.4770 C.3    92  PHE92       0.0534
      6  CG         5.8080   68.4360   54.0080 C.ar   92  PHE92      -0.0203
      7  CD1        5.5790   68.6480   55.3630 C.ar   92  PHE92      -0.0042
      8  CD2        4.7140   68.3300   53.1500 C.ar   92  PHE92      -0.0042
      9  CE1        4.2850   68.7720   55.8510 C.ar   92  PHE92      -0.0003
     10  CE2        3.4170   68.4540   53.6320 C.ar   92  PHE92      -0.0003
     11  CZ         3.2020   68.6780   54.9820 C.ar   92  PHE92      -0.0000
     12  N          0.4710   67.2830   59.0490 N.3   110  LEU110     -0.1245
     13  CA         1.0750   66.1490   58.3550 C.3   110  LEU110      0.1561
     14  C          0.4600   64.8410   58.8150 C.2   110  LEU110      0.2260
     15  O          0.0100   64.0310   58.0000 O.2   110  LEU110     -0.2867
     16  CB         2.5800   66.1230   58.5810 C.3   110  LEU110      0.0270
     17  CG         3.3210   64.9840   57.8960 C.3   110  LEU110      0.0019
     18  CD1        3.1990   65.0350   56.3660 C.3   110  LEU110      0.0001
     19  CD2        4.7970   64.9960   58.3050 C.3   110  LEU110      0.0001
     20  N         -3.5440   64.5590   57.8360 N.3   113  PHE113     -0.1227
     21  CA        -3.9370   64.2800   56.4380 C.3   113  PHE113      0.1736
     22  C         -3.4310   62.9080   55.9580 C.2   113  PHE113      0.2595
     23  O         -4.0480   62.2730   55.0750 O.2   113  PHE113     -0.2718
     24  CB        -3.5820   65.4360   55.4730 C.3   113  PHE113      0.0547
     25  CG        -2.1770   65.4260   54.9070 C.ar  113  PHE113     -0.0202
     26  CD1       -1.2300   66.3360   55.3540 C.ar  113  PHE113     -0.0042
     27  CD2       -1.8300   64.5870   53.8450 C.ar  113  PHE113     -0.0042
     28  CE1        0.0510   66.3750   54.7930 C.ar  113  PHE113     -0.0003
     29  CE2       -0.5530   64.6150   53.2940 C.ar  113  PHE113     -0.0003
     30  CZ         0.3920   65.5030   53.7720 C.ar  113  PHE113     -0.0000
     31  N         -2.3500   62.4370   56.5610 N.am  114  LEU114     -0.1980
     32  CA        -1.8690   61.0940   56.2530 C.3   114  LEU114      0.1596
     33  C         -2.6970   59.9920   56.9040 C.2   114  LEU114      0.2287
     34  O         -2.6320   58.8240   56.4920 O.2   114  LEU114     -0.2864
     35  CB        -0.3880   60.9730   56.6020 C.3   114  LEU114      0.0297
     36  CG         0.5420   61.7840   55.6880 C.3   114  LEU114      0.0022
     37  CD1        1.9950   61.5850   56.1800 C.3   114  LEU114      0.0001
     38  CD2        0.4010   61.3540   54.2480 C.3   114  LEU114      0.0001
     39  N          3.8860   56.0900   54.0740 N.3   179  LEU179     -0.1245
     40  CA         3.3760   57.3190   54.7340 C.3   179  LEU179      0.1561
     41  C          2.1250   57.0690   55.5280 C.2   179  LEU179      0.2260
     42  O          2.0490   57.4230   56.7170 O.2   179  LEU179     -0.2867
     43  CB         3.0380   58.4280   53.6900 C.3   179  LEU179      0.0270
     44  CG         4.2190   58.9900   52.8940 C.3   179  LEU179      0.0019
     45  CD1        3.7970   59.7080   51.6020 C.3   179  LEU179      0.0001
     46  CD2        5.0310   59.8890   53.7800 C.3   179  LEU179      0.0001
     47  N          8.1010   64.0160   59.3850 N.3   229  LEU229     -0.1245
     48  CA         8.6870   63.3320   58.2200 C.3   229  LEU229      0.1561
     49  C          9.5770   62.1810   58.5980 C.2   229  LEU229      0.2260
     50  O          9.5470   61.1160   57.9820 O.2   229  LEU229     -0.2867
     51  CB         9.5150   64.2940   57.3880 C.3   229  LEU229      0.0270
     52  CG         8.7370   65.3730   56.6540 C.3   229  LEU229      0.0019
     53  CD1        9.7680   66.3630   56.1000 C.3   229  LEU229      0.0001
     54  CD2        7.8990   64.7750   55.5510 C.3   229  LEU229      0.0001
     55  N          8.1370   58.9080   56.7050 N.3   233  ASN233     -0.1240
     56  CA         8.7490   58.7540   55.3780 C.3   233  ASN233      0.1653
     57  C          9.4130   57.3440   55.0710 C.2   233  ASN233      0.2266
     58  O          9.8320   57.0970   53.9640 O.2   233  ASN233     -0.2867
     59  CB         9.8050   59.8600   55.1420 C.3   233  ASN233      0.1155
     60  CG         9.2820   61.0870   54.4270 C.2   233  ASN233      0.2627
     61  OD1       10.0650   61.7720   53.7520 O.2   233  ASN233     -0.2716
     62  ND2        7.9940   61.4330   54.6230 N.am  233  ASN233     -0.0877
     63  N         13.7550   61.6480   54.3840 N.3   357  ASN357     -0.1240
     64  CA        14.2310   62.7210   53.5370 C.3   357  ASN357      0.1653
     65  C         13.6740   64.0270   54.1190 C.2   357  ASN357      0.2266
     66  O         12.5380   64.0320   54.5940 O.2   357  ASN357     -0.2867
     67  CB        13.7320   62.5090   52.0910 C.3   357  ASN357      0.1155
     68  CG        13.9460   63.7180   51.1990 C.2   357  ASN357      0.2627
     69  OD1       12.9950   64.4070   50.8040 O.2   357  ASN357     -0.2716
     70  ND2       15.1820   63.9800   50.8680 N.am  357  ASN357     -0.0877
     71  N         13.4000   56.9920   50.4140 N.3   373  PHE373     -0.1241
     72  CA        12.0880   56.4290   50.7470 C.3   373  PHE373      0.1605
     73  C         11.5830   55.5020   49.6360 C.2   373  PHE373      0.2264
     74  O         10.5480   54.8530   49.8010 O.2   373  PHE373     -0.2867
     75  CB        11.0760   57.5720   50.9410 C.3   373  PHE373      0.0534
     76  CG        11.2050   58.6440   49.8960 C.ar  373  PHE373     -0.0203
     77  CD1       10.8080   58.4050   48.5810 C.ar  373  PHE373     -0.0042
     78  CD2       11.7800   59.8700   50.1940 C.ar  373  PHE373     -0.0042
     79  CE1       10.9890   59.3510   47.6180 C.ar  373  PHE373     -0.0003
     80  CE2       11.9430   60.8190   49.2140 C.ar  373  PHE373     -0.0003
     81  CZ        11.5350   60.5640   47.9310 C.ar  373  PHE373     -0.0000
     82  N          0.1780   60.7700   43.2860 N.3   457  GLU457     -0.1245
     83  CA         0.3300   62.0370   44.0470 C.3   457  GLU457      0.1567
     84  C          0.5980   63.2280   43.1290 C.2   457  GLU457      0.2260
     85  O          1.7140   63.7840   43.0990 O.2   457  GLU457     -0.2867
     86  CB         1.4260   61.9410   45.1300 C.3   457  GLU457      0.0388
     87  CG         1.3490   63.0890   46.1290 C.3   457  GLU457      0.1160
     88  CD         2.6800   63.4770   46.7510 C.2   457  GLU457      0.3649
     89  OE1        3.6520   62.7280   46.6160 O.co2 457  GLU457     -0.2457
     90  OE2        2.7560   64.5290   47.4180 O.co2 457  GLU457     -0.2457
     91  N          3.7750   63.3690   41.1310 N.3   460  ASN460     -0.1225
     92  CA         5.0500   63.5250   41.8060 C.3   460  ASN460      0.1785
     93  C          5.7070   62.1560   41.9560 C.2   460  ASN460      0.2597
     94  O          6.9060   62.0270   41.7770 O.2   460  ASN460     -0.2718
     95  CB         4.8520   64.1210   43.1770 C.3   460  ASN460      0.1169
     96  CG         6.1450   64.2680   43.9500 C.2   460  ASN460      0.2627
     97  OD1        7.1620   64.6460   43.3930 O.2   460  ASN460     -0.2716
     98  ND2        6.1040   63.9680   45.2570 N.am  460  ASN460     -0.0877
     99  N          4.9110   61.1610   42.3540 N.am  461  GLN461     -0.1979
    100  CA         5.4050   59.7950   42.5710 C.3   461  GLN461      0.1601
    101  C          5.1710   58.9920   41.3000 C.2   461  GLN461      0.2287
    102  O          4.4000   58.0270   41.2760 O.2   461  GLN461     -0.2864
    103  CB         4.6980   59.1490   43.7530 C.3   461  GLN461      0.0394
    104  CG         4.8160   59.9770   45.0070 C.3   461  GLN461      0.0908
    105  CD         4.4630   59.2130   46.2860 C.2   461  GLN461      0.2608
    106  OE1        4.7840   58.0370   46.4320 O.2   461  GLN461     -0.2717
    107  NE2        3.8370   59.9060   47.2310 N.am  461  GLN461     -0.0878
@<TRIPOS>BOND
     1    91    92    1
     2   102   101    2
     3   101   100    1
     4    94    93    2
     5    92    93    1
     6    92    95    1
     7    93    99   am
     8    99   100    1
     9   100   103    1
    10    85    84    2
    11    84    83    1
    12    95    96    1
    13    82    83    1
    14    97    96    2
    15   103   104    1
    16    96    98   am
    17    83    86    1
    18   104   105    1
    19    86    87    1
    20    87    88    1
    21   105   106    2
    22   105   107   am
    23    89    88   ar
    24    88    90   ar
    25    79    81   ar
    26    79    77   ar
    27    81    80   ar
    28    77    76   ar
    29    80    78   ar
    30    73    74    2
    31    73    72    1
    32    76    78   ar
    33    76    75    1
    34    71    72    1
    35    72    75    1
    36    69    68    2
    37    70    68   am
    38    68    67    1
    39     4     3    2
    40    45    44    1
    41    67    64    1
    42     3     2    1
    43    44    43    1
    44    44    46    1
    45     8    10   ar
    46     8     6   ar
    47    29    30   ar
    48    29    27   ar
    49     2     5    1
    50     2     1    1
    51     5     6    1
    52    64    65    1
    53    64    63    1
    54    10    11   ar
    55    43    40    1
    56    61    60    2
    57    30    28   ar
    58    27    25   ar
    59    58    57    2
    60     6     7   ar
    61    39    40    1
    62    65    66    2
    63    38    36    1
    64    60    62   am
    65    60    59    1
    66    40    41    1
    67    28    26   ar
    68    25    26   ar
    69    25    24    1
    70    11     9   ar
    71    57    56    1
    72    23    22    2
    73    59    56    1
    74     7     9   ar
    75    56    55    1
    76    24    21    1
    77    41    42    2
    78    54    52    1
    79    36    37    1
    80    36    35    1
    81    22    21    1
    82    22    31   am
    83    53    52    1
    84    32    31    1
    85    32    35    1
    86    32    33    1
    87    18    17    1
    88    21    20    1
    89    34    33    2
    90    52    51    1
    91    51    48    1
    92    17    19    1
    93    17    16    1
    94    50    49    2
    95    15    14    2
    96    48    49    1
    97    48    47    1
    98    13    16    1
    99    13    14    1
   100    13    12    1
