@<TRIPOS>MOLECULE
tmp/1w29B01.pdb
 134 132 0 0 0
SMALL
GASTEIGER

@<TRIPOS>ATOM
      1  N        -23.1770   18.0510   13.1270 N.3    12  SER12      -0.1217
      2  CA       -21.9910   18.8600   13.3720 C.3    12  SER12       0.1889
      3  C        -21.9980   19.8850   12.2660 C.2    12  SER12       0.2288
      4  O        -22.7710   19.7350   11.3500 O.2    12  SER12      -0.2866
      5  CB       -20.7590   17.9950   13.2890 C.3    12  SER12       0.2089
      6  OG       -20.7130   17.4670   11.9900 O.3    12  SER12      -0.2183
      7  N        -18.8400   21.5000   10.7090 N.3    14  TRP14      -0.1227
      8  CA       -17.7160   21.4830    9.7710 C.3    14  TRP14       0.1737
      9  C        -18.1820   21.0800    8.3410 C.2    14  TRP14       0.2595
     10  O        -18.8220   20.0330    8.1630 O.2    14  TRP14      -0.2718
     11  CB       -16.6500   20.4560   10.2400 C.3    14  TRP14       0.0564
     12  CG       -15.6040   21.0010   11.1300 C.ar   14  TRP14       0.0003
     13  CD1      -15.7730   21.5140   12.3910 C.ar   14  TRP14       0.0946
     14  CD2      -14.2200   21.0880   10.8450 C.ar   14  TRP14       0.0152
     15  NE1      -14.5680   21.9140   12.9110 N.ar   14  TRP14      -0.2442
     16  CE2      -13.5930   21.6730   11.9790 C.ar   14  TRP14       0.0810
     17  CE3      -13.4330   20.7380    9.7450 C.ar   14  TRP14       0.0012
     18  CZ2      -12.2200   21.9060   12.0400 C.ar   14  TRP14       0.0191
     19  CZ3      -12.0830   20.9750    9.7990 C.ar   14  TRP14       0.0001
     20  CH2      -11.4760   21.5560   10.9460 C.ar   14  TRP14       0.0015
     21  N        -17.7910   21.8480    7.3350 N.am   15  HIS15      -0.1975
     22  CA       -18.3430   21.6860    6.0010 C.3    15  HIS15       0.1656
     23  C        -19.8370   21.9430    6.1380 C.2    15  HIS15       0.2291
     24  O        -20.6450   21.0220    6.1780 O.2    15  HIS15      -0.2864
     25  CB       -18.0460   20.2920    5.4060 C.3    15  HIS15       0.0771
     26  CG       -16.6230   19.8440    5.5860 C.ar   15  HIS15       0.0820
     27  ND1      -15.6180   20.1720    4.6920 N.ar   15  HIS15      -0.2267
     28  CD2      -16.0390   19.1060    6.5640 C.ar   15  HIS15       0.1154
     29  CE1      -14.4770   19.6670    5.1200 C.ar   15  HIS15       0.1986
     30  NE2      -14.7060   19.0070    6.2480 N.ar   15  HIS15      -0.2212
     31  N        -20.5210   21.8910   16.8100 N.3    44  LEU44      -0.1231
     32  CA       -19.5300   22.4990   15.9520 C.3    44  LEU44       0.1693
     33  C        -18.7830   21.4130   15.1960 C.2    44  LEU44       0.2593
     34  O        -18.7350   21.4350   13.9660 O.2    44  LEU44      -0.2718
     35  CB       -18.6120   23.3940   16.7580 C.3    44  LEU44       0.0284
     36  CG       -17.1620   23.6340   16.3220 C.3    44  LEU44       0.0019
     37  CD1      -16.9570   23.7250   14.7910 C.3    44  LEU44       0.0001
     38  CD2      -16.6850   24.9210   17.0090 C.3    44  LEU44       0.0001
     39  N        -18.2420   20.4210   15.8700 N.am   45  GLY45      -0.1942
     40  CA       -17.5660   19.3730   15.1190 C.3    45  GLY45       0.2014
     41  C        -18.0710   17.9950   15.4440 C.2    45  GLY45       0.2639
     42  O        -18.7780   17.8600   16.3890 O.2    45  GLY45      -0.2714
     43  N        -17.6580   16.9830   14.6990 N.am   46  ALA46      -0.1963
     44  CA       -18.1420   15.6200   14.9010 C.3    46  ALA46       0.1728
     45  C        -17.7150   14.9580   16.2260 C.2    46  ALA46       0.2616
     46  O        -18.3890   14.1120   16.7210 O.2    46  ALA46      -0.2715
     47  CB       -17.7110   14.7880   13.7910 C.3    46  ALA46       0.0334
     48  N        -16.5860   15.3460   16.7850 N.am   47  ILE47      -0.1963
     49  CA       -16.1440   14.8090   18.0860 C.3    47  ILE47       0.1727
     50  C        -17.0760   15.2330   19.2260 C.2    47  ILE47       0.2616
     51  O        -17.1120   14.5760   20.2750 O.2    47  ILE47      -0.2715
     52  CB       -14.6590   15.2130   18.3120 C.3    47  ILE47       0.0290
     53  CG1      -13.7910   14.2380   17.5160 C.3    47  ILE47       0.0022
     54  CG2      -14.2650   15.3080   19.8270 C.3    47  ILE47       0.0023
     55  CD1      -12.3900   14.0540   18.0690 C.3    47  ILE47       0.0001
     56  N        -17.8690   16.2830   18.9980 N.am   48  GLU48      -0.1977
     57  CA       -18.8300   16.7940   19.9960 C.3    48  GLU48       0.1602
     58  C        -20.1590   15.9850   19.9440 C.2    48  GLU48       0.2287
     59  O        -20.9490   15.9880   20.8820 O.2    48  GLU48      -0.2864
     60  CB       -19.0870   18.3030   19.8160 C.3    48  GLU48       0.0415
     61  CG       -18.0170   19.2230   20.3950 C.3    48  GLU48       0.1163
     62  CD       -16.7640   19.4170   19.5210 C.2    48  GLU48       0.3649
     63  OE1      -16.8110   20.1690   18.4670 O.co2  48  GLU48      -0.2457
     64  OE2      -15.7130   18.8310   19.9070 O.co2  48  GLU48      -0.2457
     65  N        -19.6220   15.2340    8.7730 N.3    68  VAL68      -0.1231
     66  CA       -18.7240   15.1590    7.6510 C.3    68  VAL68       0.1692
     67  C        -17.3000   15.4030    8.1050 C.2    68  VAL68       0.2592
     68  O        -16.9850   16.4970    8.5860 O.2    68  VAL68      -0.2718
     69  CB       -18.9970   16.2380    6.5480 C.3    68  VAL68       0.0266
     70  CG1      -18.3810   15.7730    5.2610 C.3    68  VAL68       0.0020
     71  CG2      -20.5070   16.4760    6.3000 C.3    68  VAL68       0.0020
     72  N        -16.4720   14.3660    7.9450 N.am   69  VAL69      -0.1966
     73  CA       -15.0740   14.3690    8.2790 C.3    69  VAL69       0.1727
     74  C        -14.3680   14.0820    6.9730 C.2    69  VAL69       0.2616
     75  O        -14.6380   13.0640    6.3720 O.2    69  VAL69      -0.2715
     76  CB       -14.7300   13.2360    9.2830 C.3    69  VAL69       0.0290
     77  CG1      -13.2790   13.3450    9.6990 C.3    69  VAL69       0.0023
     78  CG2      -15.6510   13.2600   10.5190 C.3    69  VAL69       0.0023
     79  N        -13.4860   14.9620    6.5290 N.am   70  ILE70      -0.1977
     80  CA       -12.7660   14.7870    5.2560 C.3    70  ILE70       0.1596
     81  C        -11.2540   14.7710    5.4580 C.2    70  ILE70       0.2287
     82  O        -10.7150   15.7030    6.0330 O.2    70  ILE70      -0.2864
     83  CB       -13.0870   15.9090    4.3160 C.3    70  ILE70       0.0276
     84  CG1      -14.6030   15.9470    4.0580 C.3    70  ILE70       0.0022
     85  CG2      -12.3030   15.7430    3.0350 C.3    70  ILE70       0.0022
     86  CD1      -15.0460   17.1760    3.2350 C.3    70  ILE70       0.0001
     87  N         -7.2750   14.9600    5.5510 N.3    72  GLY72      -0.1210
     88  CA        -6.3010   15.9800    5.3000 C.3    72  GLY72       0.1956
     89  C         -4.9520   15.3680    4.9910 C.2    72  GLY72       0.2612
     90  O         -4.8400   14.2430    4.4620 O.2    72  GLY72      -0.2717
     91  N         -3.9270   16.1700    5.2690 N.am   73  GLN73      -0.1965
     92  CA        -2.5470   15.8240    5.0500 C.3    73  GLN73       0.1733
     93  C         -1.9410   14.9880    6.1870 C.2    73  GLN73       0.2617
     94  O         -0.9900   14.2380    5.9460 O.2    73  GLN73      -0.2715
     95  CB        -1.7390   17.1160    4.8210 C.3    73  GLN73       0.0408
     96  CG        -2.1910   17.9540    3.6030 C.3    73  GLN73       0.0908
     97  CD        -2.4520   17.0750    2.4000 C.2    73  GLN73       0.2608
     98  OE1       -3.6060   16.8450    2.0300 O.2    73  GLN73      -0.2717
     99  NE2       -1.3910   16.5060    1.8510 N.am   73  GLN73      -0.0878
    100  N         -2.4910   15.1070    7.4040 N.am   74  THR74      -0.1951
    101  CA        -1.9640   14.4030    8.5950 C.3    74  THR74       0.1897
    102  C         -2.7350   13.1140    8.9170 C.2    74  THR74       0.2313
    103  O         -3.7470   12.8470    8.2970 O.2    74  THR74      -0.2863
    104  CB        -2.0040   15.3210    9.8470 C.3    74  THR74       0.1794
    105  OG1       -3.3450   15.4450   10.3480 O.3    74  THR74      -0.2208
    106  CG2       -1.5420   16.7410    9.5380 C.3    74  THR74       0.0378
    107  N         -4.5340   12.8320   11.3800 N.3    76  HIS76      -0.1226
    108  CA        -5.5410   13.2930   12.3110 C.3    76  HIS76       0.1752
    109  C         -6.9640   12.8840   11.9720 C.2    76  HIS76       0.2596
    110  O         -7.7690   12.7930   12.8690 O.2    76  HIS76      -0.2718
    111  CB        -5.4490   14.7920   12.5390 C.3    76  HIS76       0.0759
    112  CG        -6.2950   15.2510   13.6700 C.ar   76  HIS76       0.0818
    113  ND1       -7.4010   16.0570   13.4920 N.ar   76  HIS76      -0.2268
    114  CD2       -6.2680   14.9200   14.9840 C.ar   76  HIS76       0.1154
    115  CE1       -7.9980   16.2290   14.6580 C.ar   76  HIS76       0.1986
    116  NE2       -7.3350   15.5430   15.5750 N.ar   76  HIS76      -0.2212
    117  N         -7.2520   12.6150   10.7000 N.am   77  PHE77      -0.1976
    118  CA        -8.5370   12.0440   10.2180 C.3    77  PHE77       0.1639
    119  C         -8.8610   10.7800   10.9570 C.2    77  PHE77       0.2290
    120  O         -9.9670   10.5780   11.4350 O.2    77  PHE77      -0.2864
    121  CB        -8.3890   11.7060    8.7120 C.3    77  PHE77       0.0560
    122  CG        -9.6090   11.0270    8.0440 C.ar   77  PHE77      -0.0200
    123  CD1      -10.6630   11.7770    7.5380 C.ar   77  PHE77      -0.0042
    124  CD2       -9.6480    9.6410    7.8710 C.ar   77  PHE77      -0.0042
    125  CE1      -11.7450   11.1800    6.8930 C.ar   77  PHE77      -0.0003
    126  CE2      -10.7400    9.0190    7.2690 C.ar   77  PHE77      -0.0003
    127  CZ       -11.7790    9.7840    6.7750 C.ar   77  PHE77      -0.0000
    128  N        -10.0430   11.2730   14.6630 N.3    80  VAL80      -0.1245
    129  CA       -11.3820   11.8160   14.7570 C.3    80  VAL80       0.1561
    130  C        -12.4510   10.7370   14.4830 C.2    80  VAL80       0.2260
    131  O        -13.4390   10.6370   15.2020 O.2    80  VAL80      -0.2867
    132  CB       -11.5970   13.0490   13.8100 C.3    80  VAL80       0.0252
    133  CG1      -13.0960   13.3730   13.6720 C.3    80  VAL80       0.0019
    134  CG2      -10.9120   14.2290   14.3330 C.3    80  VAL80       0.0019
@<TRIPOS>BOND
     1    99    97   am
     2    98    97    2
     3    97    96    1
     4    85    83    1
     5    86    84    1
     6    96    95    1
     7    84    83    1
     8    83    80    1
     9    90    89    2
    10    27    29   ar
    11    27    26   ar
    12    95    92    1
    13    89    91   am
    14    89    88    1
    15    92    91    1
    16    92    93    1
    17    29    30   ar
    18    80    81    1
    19    80    79    1
    20    70    69    1
    21    88    87    1
    22    25    26    1
    23    25    22    1
    24    81    82    2
    25    26    28   ar
    26    94    93    2
    27    22    23    1
    28    22    21    1
    29    23    24    2
    30    93   100   am
    31    30    28   ar
    32    71    69    1
    33    75    74    2
    34    79    74   am
    35    69    66    1
    36   127   125   ar
    37   127   126   ar
    38   125   123   ar
    39    74    73    1
    40   126   124   ar
    41    21     9   am
    42   100   101    1
    43   123   122   ar
    44    66    67    1
    45    66    65    1
    46   124   122   ar
    47    72    67   am
    48    72    73    1
    49   122   121    1
    50    67    68    2
    51    10     9    2
    52    73    76    1
    53   103   102    2
    54     9     8    1
    55   101   102    1
    56   101   104    1
    57   121   118    1
    58    76    77    1
    59    76    78    1
    60   106   104    1
    61    17    19   ar
    62    17    14   ar
    63     8    11    1
    64     8     7    1
    65    19    20   ar
    66   104   105    1
    67   118   117    1
    68   118   119    1
    69    11    12    1
    70   117   109   am
    71    14    12   ar
    72    14    16   ar
    73    20    18   ar
    74   119   120    2
    75    12    13   ar
    76     4     3    2
    77   107   108    1
    78   109   108    1
    79   109   110    2
    80    16    18   ar
    81    16    15   ar
    82     6     5    1
    83     3     2    1
    84   108   111    1
    85    13    15   ar
    86   111   112    1
    87     1     2    1
    88     5     2    1
    89   113   112   ar
    90   113   115   ar
    91   112   114   ar
    92   133   132    1
    93    47    44    1
    94   132   134    1
    95   132   129    1
    96    34    33    2
    97   130   129    1
    98   130   131    2
    99   115   116   ar
   100   128   129    1
   101    43    44    1
   102    43    41   am
   103    37    36    1
   104    44    45    1
   105   114   116   ar
   106    40    41    1
   107    40    39    1
   108    33    39   am
   109    33    32    1
   110    41    42    2
   111    32    35    1
   112    32    31    1
   113    45    46    2
   114    45    48   am
   115    36    35    1
   116    36    38    1
   117    48    49    1
   118    53    55    1
   119    53    52    1
   120    49    52    1
   121    49    50    1
   122    52    54    1
   123    63    62   ar
   124    56    50   am
   125    56    57    1
   126    50    51    2
   127    62    64   ar
   128    62    61    1
   129    60    57    1
   130    60    61    1
   131    58    57    1
   132    58    59    2
