@<TRIPOS>MOLECULE
tmp/1w29B00.pdb
 73 67 0 0 0
SMALL
GASTEIGER

@<TRIPOS>ATOM
      1  N        -28.5950    4.8560   17.8330 N.3    99  ILE99      -0.1231
      2  CA       -27.8780    6.0480   17.4270 C.3    99  ILE99       0.1692
      3  C        -27.3420    5.7540   16.0280 C.2    99  ILE99       0.2592
      4  O        -26.3450    5.0220   15.8510 O.2    99  ILE99      -0.2718
      5  CB       -26.7490    6.3870   18.4080 C.3    99  ILE99       0.0266
      6  CG1      -27.1640    6.1420   19.8940 C.3    99  ILE99       0.0019
      7  CG2      -26.3230    7.8830   18.2380 C.3    99  ILE99       0.0020
      8  CD1      -28.0100    7.2370   20.5170 C.3    99  ILE99       0.0001
      9  N        -28.0380    6.2940   15.0200 N.am  100  ALA100     -0.1966
     10  CA       -27.7190    6.0660   13.6390 C.3   100  ALA100      0.1728
     11  C        -26.4540    6.8660   13.2480 C.2   100  ALA100      0.2616
     12  O        -26.3790    8.0480   13.5470 O.2   100  ALA100     -0.2715
     13  CB       -28.8950    6.4150   12.8070 C.3   100  ALA100      0.0334
     14  N        -25.4230    6.2080   12.6900 N.am  101  ASN101     -0.1958
     15  CA       -24.1880    6.8900   12.3510 C.3   101  ASN101      0.1819
     16  C        -24.2700    7.4560   10.9240 C.2   101  ASN101      0.2621
     17  O        -23.9900    6.7530    9.9290 O.2   101  ASN101     -0.2715
     18  CB       -22.9470    5.9980   12.5270 C.3   101  ASN101      0.1195
     19  CG       -21.6290    6.7820   12.2460 C.2   101  ASN101      0.2630
     20  OD1      -21.5940    7.6630   11.4030 O.2   101  ASN101     -0.2716
     21  ND2      -20.5660    6.4580   12.9620 N.am  101  ASN101     -0.0877
     22  N        -24.6770    8.7240   10.8220 N.am  102  GLY102     -0.1954
     23  CA       -24.8060    9.3430    9.5330 C.3   102  GLY102      0.1869
     24  C        -23.6040   10.2290    9.3110 C.2   102  GLY102      0.2309
     25  O        -23.7180   11.2560    8.6730 O.2   102  GLY102     -0.2863
     26  N        -22.5190   11.7500   -1.4090 N.3   115  ARG115     -0.1245
     27  CA       -23.2230   10.9270   -0.4430 C.3   115  ARG115      0.1563
     28  C        -24.1350   11.7180    0.4920 C.2   115  ARG115      0.2260
     29  O        -24.5350   11.2060    1.5500 O.2   115  ARG115     -0.2867
     30  CB       -22.2230   10.1330    0.3710 C.3   115  ARG115      0.0307
     31  CG       -21.4300    9.1050   -0.4280 C.3   115  ARG115      0.0489
     32  CD       -20.0520    8.8400    0.1450 C.3   115  ARG115      0.2205
     33  NE       -19.3340    7.8110   -0.5990 N.pl3 115  ARG115     -0.0865
     34  CZ       -18.7820    7.9590   -1.8020 C.cat 115  ARG115      0.5346
     35  NH1      -18.8780    9.0920   -2.4790 N.pl3 115  ARG115      0.1354
     36  NH2      -18.1790    6.9300   -2.3780 N.pl3 115  ARG115      0.1354
     37  N        -26.0560    8.8110   -3.6790 N.3   123  GLU123     -0.1245
     38  CA       -26.8290    8.4200   -2.5100 C.3   123  GLU123      0.1567
     39  C        -26.9640    9.5500   -1.4670 C.2   123  GLU123      0.2260
     40  O        -26.2920   10.5470   -1.5810 O.2   123  GLU123     -0.2867
     41  CB       -26.1990    7.1820   -1.8660 C.3   123  GLU123      0.0388
     42  CG       -24.7490    7.2810   -1.4360 C.3   123  GLU123      0.1160
     43  CD       -24.2600    5.9690   -0.7620 C.2   123  GLU123      0.3649
     44  OE1      -25.1080    5.1460   -0.3010 O.co2 123  GLU123     -0.2457
     45  OE2      -23.0130    5.7410   -0.6850 O.co2 123  GLU123     -0.2457
     46  N        -26.8260    9.7490    2.6750 N.3   125  LYS125     -0.1245
     47  CA       -26.5280    8.9680    3.8740 C.3   125  LYS125      0.1561
     48  C        -27.2840    9.4610    5.1320 C.2   125  LYS125      0.2260
     49  O        -27.6150    8.6550    6.0120 O.2   125  LYS125     -0.2867
     50  CB       -25.0170    8.8410    4.0900 C.3   125  LYS125      0.0271
     51  CG       -24.3510    7.8200    3.0270 C.3   125  LYS125      0.0035
     52  CD       -23.1790    6.8860    3.5870 C.3   125  LYS125      0.0206
     53  CE       -23.6260    5.4140    3.9170 C.3   125  LYS125      0.1093
     54  NZ       -23.9030    4.4990    2.6890 N.3   125  LYS125     -0.1314
     55  N        -30.5910    7.7280    4.8150 N.3   128  GLN128     -0.1231
     56  CA       -30.4110    6.3100    5.1970 C.3   128  GLN128      0.1698
     57  C        -30.4130    6.0950    6.7220 C.2   128  GLN128      0.2592
     58  O        -31.0080    5.0930    7.2430 O.2   128  GLN128     -0.2718
     59  CB       -29.1000    5.7280    4.5950 C.3   128  GLN128      0.0381
     60  CG       -29.0640    5.7340    3.0620 C.3   128  GLN128      0.0905
     61  CD       -27.6770    5.5230    2.4610 C.2   128  GLN128      0.2608
     62  OE1      -26.6790    5.2510    3.1700 O.2   128  GLN128     -0.2717
     63  NE2      -27.6110    5.6260    1.1440 N.am  128  GLN128     -0.0878
     64  N        -29.7530    7.0110    7.4340 N.am  129  ALA129     -0.1980
     65  CA       -29.5380    6.8710    8.8820 C.3   129  ALA129      0.1597
     66  C        -30.8210    7.1580    9.6260 C.2   129  ALA129      0.2287
     67  O        -31.0440    6.6430   10.6720 O.2   129  ALA129     -0.2864
     68  CB       -28.4610    7.8040    9.3410 C.3   129  ALA129      0.0319
     69  N        -32.9020    4.1110    9.1880 N.3   132  ALA132     -0.1245
     70  CA       -32.3260    3.1160   10.0580 C.3   132  ALA132      0.1562
     71  C        -32.6970    3.3460   11.5200 C.2   132  ALA132      0.2260
     72  O        -33.0460    2.4060   12.2210 O.2   132  ALA132     -0.2867
     73  CB       -30.8370    3.0690    9.9090 C.3   132  ALA132      0.0290
@<TRIPOS>BOND
     1    37    38    1
     2    38    41    1
     3    38    39    1
     4    35    34    1
     5    36    34    1
     6    41    42    1
     7    34    33    2
     8    40    39    2
     9    42    43    1
    10    26    27    1
    11    43    45   ar
    12    43    44   ar
    13    33    32    1
    14    27    30    1
    15    27    28    1
    16    31    32    1
    17    31    30    1
    18    28    29    2
    19    63    61   am
    20    61    60    1
    21    61    62    2
    22    46    47    1
    23    54    53    1
    24    51    52    1
    25    51    50    1
    26    60    59    1
    27    52    53    1
    28    47    50    1
    29    47    48    1
    30    59    56    1
    31    55    56    1
    32    48    49    2
    33    56    57    1
    34    57    58    2
    35    57    64   am
    36    64    65    1
    37    25    24    2
    38    65    68    1
    39    65    66    1
    40    69    70    1
    41    24    23    1
    42    23    22    1
    43    66    67    2
    44    73    70    1
    45    17    16    2
    46    70    71    1
    47    22    16   am
    48    16    15    1
    49    20    19    2
    50    71    72    2
    51    19    18    1
    52    19    21   am
    53    15    18    1
    54    15    14    1
    55    14    11   am
    56    13    10    1
    57    11    12    2
    58    11    10    1
    59    10     9    1
    60     9     3   am
    61     4     3    2
    62     3     2    1
    63     2     1    1
    64     2     5    1
    65     7     5    1
    66     5     6    1
    67     6     8    1
