@<TRIPOS>MOLECULE
tmp/1w2cA00.pdb
 158 146 0 0 0
SMALL
GASTEIGER

@<TRIPOS>ATOM
      1  N         22.3180   35.7660   82.4680 N.3     1  SER1       -0.1202
      2  CA        23.0030   34.5070   82.9120 C.3     1  SER1        0.2020
      3  C         24.3580   34.2410   82.2090 C.2     1  SER1        0.2618
      4  O         25.2120   33.5730   82.7900 O.2     1  SER1       -0.2717
      5  CB        22.0640   33.2950   82.7550 C.3     1  SER1        0.2103
      6  OG        21.8080   32.6640   84.0120 O.3     1  SER1       -0.2182
      7  N         24.5550   34.7790   80.9960 N.am    2  PHE2       -0.1975
      8  CA        25.7890   34.5690   80.2000 C.3     2  PHE2        0.1639
      9  C         26.6720   35.8310   79.9690 C.2     2  PHE2        0.2290
     10  O         26.1650   36.9470   79.8160 O.2     2  PHE2       -0.2864
     11  CB        25.4290   33.9590   78.8350 C.3     2  PHE2        0.0560
     12  CG        25.0690   32.4920   78.9010 C.ar    2  PHE2       -0.0200
     13  CD1       23.7900   32.0950   79.2590 C.ar    2  PHE2       -0.0042
     14  CD2       26.0130   31.5180   78.6200 C.ar    2  PHE2       -0.0042
     15  CE1       23.4670   30.7480   79.3510 C.ar    2  PHE2       -0.0003
     16  CE2       25.6840   30.1720   78.6860 C.ar    2  PHE2       -0.0003
     17  CZ        24.4170   29.7920   79.0530 C.ar    2  PHE2       -0.0000
     18  N         32.7510   30.6300   76.6610 N.3    11  ILE11      -0.1245
     19  CA        31.6180   31.4300   77.1100 C.3    11  ILE11       0.1561
     20  C         31.4290   31.2010   78.6190 C.2    11  ILE11       0.2260
     21  O         31.7090   30.0940   79.1250 O.2    11  ILE11      -0.2867
     22  CB        30.3260   31.1070   76.3320 C.3    11  ILE11       0.0252
     23  CG1       29.2560   32.1730   76.6090 C.3    11  ILE11       0.0019
     24  CG2       29.7780   29.7470   76.7130 C.3    11  ILE11       0.0019
     25  CD1       28.0110   32.0830   75.7300 C.3    11  ILE11       0.0001
     26  N         28.9980   31.2830   82.0780 N.3    13  LYS13      -0.1245
     27  CA        27.6570   31.1700   82.5990 C.3    13  LYS13       0.1561
     28  C         27.7510   31.3150   84.1180 C.2    13  LYS13       0.2260
     29  O         28.5950   30.6510   84.7260 O.2    13  LYS13      -0.2867
     30  CB        27.0490   29.7870   82.2570 C.3    13  LYS13       0.0271
     31  CG        25.5830   29.6460   82.6640 C.3    13  LYS13       0.0035
     32  CD        24.9820   28.2990   82.3220 C.3    13  LYS13       0.0206
     33  CE        23.5800   28.1710   82.9310 C.3    13  LYS13       0.1093
     34  NZ        22.9560   26.8800   82.5540 N.3    13  LYS13      -0.1314
     35  N         28.6440   20.5530   76.6280 N.3    36  PRO36      -0.2116
     36  CA        29.7250   21.5240   76.4220 C.3    36  PRO36       0.1372
     37  C         30.9200   21.1610   77.3290 C.2    36  PRO36       0.2244
     38  O         30.7450   20.7410   78.4720 O.2    36  PRO36      -0.2868
     39  CB        29.0940   22.8720   76.8070 C.3    36  PRO36       0.0268
     40  CG        27.8110   22.5780   77.4910 C.3    36  PRO36       0.0207
     41  CD        27.4330   21.1740   77.1800 C.3    36  PRO36       0.0892
     42  N         32.6730   27.5930   79.8450 N.3    52  LEU52      -0.1231
     43  CA        32.1220   26.6040   78.9150 C.3    52  LEU52       0.1693
     44  C         32.5540   26.8170   77.4640 C.2    52  LEU52       0.2592
     45  O         32.7640   27.9400   76.9850 O.2    52  LEU52      -0.2718
     46  CB        30.5870   26.5760   78.9850 C.3    52  LEU52       0.0284
     47  CG        29.9280   26.3910   80.3310 C.3    52  LEU52       0.0019
     48  CD1       28.4200   26.5450   80.1970 C.3    52  LEU52       0.0001
     49  CD2       30.3210   25.0400   80.9020 C.3    52  LEU52       0.0001
     50  N         32.7380   25.7140   76.7600 N.am   53  GLN53      -0.1966
     51  CA        32.7090   25.7340   75.3160 C.3    53  GLN53       0.1733
     52  C         31.4970   26.5000   74.8250 C.2    53  GLN53       0.2616
     53  O         30.3840   26.2590   75.2700 O.2    53  GLN53      -0.2715
     54  CB        32.6080   24.2820   74.8250 C.3    53  GLN53       0.0408
     55  CG        32.6360   24.0870   73.3560 C.3    53  GLN53       0.0908
     56  CD        32.3180   22.6620   72.9620 C.2    53  GLN53       0.2608
     57  OE1       32.2080   21.7590   73.8110 O.2    53  GLN53      -0.2717
     58  NE2       32.1490   22.4520   71.6550 N.am   53  GLN53      -0.0878
     59  N         31.7360   27.3890   73.8890 N.am   54  ASP54      -0.1957
     60  CA        30.7040   28.0510   73.1000 C.3    54  ASP54       0.1840
     61  C         30.3900   27.1100   71.9620 C.2    54  ASP54       0.2622
     62  O         31.1710   26.9790   70.9930 O.2    54  ASP54      -0.2715
     63  CB        31.2420   29.3630   72.5290 C.3    54  ASP54       0.1450
     64  CG        30.1690   30.1590   71.7730 C.2    54  ASP54       0.3671
     65  OD1       29.0900   29.5940   71.4350 O.co2  54  ASP54      -0.2456
     66  OD2       30.3310   31.3640   71.4980 O.co2  54  ASP54      -0.2456
     67  N         29.2400   26.4660   72.0950 N.am   55  LEU55      -0.1963
     68  CA        28.7420   25.4830   71.1410 C.3    55  LEU55       0.1728
     69  C         28.4630   26.0560   69.7440 C.2    55  LEU55       0.2616
     70  O         28.4120   25.3020   68.7870 O.2    55  LEU55      -0.2715
     71  CB        27.4490   24.8850   71.7060 C.3    55  LEU55       0.0311
     72  CG        27.5680   24.1280   73.0330 C.3    55  LEU55       0.0022
     73  CD1       26.2240   23.6450   73.4080 C.3    55  LEU55       0.0001
     74  CD2       28.5480   22.9320   72.8970 C.3    55  LEU55       0.0001
     75  N         28.2540   27.3760   69.6440 N.am   56  LEU56      -0.1977
     76  CA        28.0900   28.0670   68.3500 C.3    56  LEU56       0.1596
     77  C         29.3770   28.3450   67.5810 C.2    56  LEU56       0.2287
     78  O         29.3040   28.6610   66.4140 O.2    56  LEU56      -0.2864
     79  CB        27.3100   29.3790   68.5000 C.3    56  LEU56       0.0297
     80  CG        26.0070   29.3360   69.3010 C.3    56  LEU56       0.0022
     81  CD1       25.1650   30.6280   69.1350 C.3    56  LEU56       0.0001
     82  CD2       25.1930   28.1070   68.9090 C.3    56  LEU56       0.0001
     83  N         19.5260   27.8360   66.0040 N.3    64  VAL64      -0.1245
     84  CA        19.5380   27.1730   67.2990 C.3    64  VAL64       0.1561
     85  C         18.1130   26.8510   67.7260 C.2    64  VAL64       0.2260
     86  O         17.1840   27.7070   67.6180 O.2    64  VAL64      -0.2867
     87  CB        20.2700   28.0730   68.3300 C.3    64  VAL64       0.0252
     88  CG1       20.2950   27.4960   69.7360 C.3    64  VAL64       0.0019
     89  CG2       21.6300   28.4280   67.8240 C.3    64  VAL64       0.0019
     90  N         16.2000   25.0800   71.1280 N.3    66  ASP66      -0.1239
     91  CA        16.2950   24.5940   72.5040 C.3    66  ASP66       0.1674
     92  C         15.0330   23.7950   72.8360 C.2    66  ASP66       0.2266
     93  O         13.9280   24.2740   72.7150 O.2    66  ASP66      -0.2867
     94  CB        16.4870   25.8180   73.4080 C.3    66  ASP66       0.1410
     95  CG        16.2910   25.5580   74.8980 C.2    66  ASP66       0.3668
     96  OD1       15.7920   24.5010   75.3840 O.co2  66  ASP66      -0.2456
     97  OD2       16.5870   26.4850   75.6910 O.co2  66  ASP66      -0.2456
     98  N         13.3720   21.5590   75.8980 N.3    68  LYS68      -0.1245
     99  CA        13.3920   21.1870   77.3420 C.3    68  LYS68       0.1561
    100  C         12.9800   19.7520   77.4720 C.2    68  LYS68       0.2260
    101  O         11.9220   19.3510   76.9710 O.2    68  LYS68      -0.2867
    102  CB        12.5040   22.0720   78.2110 C.3    68  LYS68       0.0271
    103  CG        12.6650   21.7500   79.6960 C.3    68  LYS68       0.0035
    104  CD        12.1170   22.7850   80.6180 C.3    68  LYS68       0.0206
    105  CE        12.9610   24.0670   80.6900 C.3    68  LYS68       0.1093
    106  NZ        12.5390   24.8930   81.9260 N.3    68  LYS68      -0.1314
    107  N         11.2060   25.0900   73.3660 N.3   137  GLU137     -0.1245
    108  CA        11.2230   26.3390   74.1190 C.3   137  GLU137      0.1567
    109  C         11.4740   27.6130   73.2760 C.2   137  GLU137      0.2260
    110  O         10.9290   28.6980   73.5310 O.2   137  GLU137     -0.2867
    111  CB        12.3230   26.2370   75.1650 C.3   137  GLU137      0.0388
    112  CG        12.0060   25.1980   76.2260 C.3   137  GLU137      0.1160
    113  CD        11.2040   25.8130   77.3700 C.2   137  GLU137      0.3649
    114  OE1       11.8140   26.4130   78.2600 O.co2 137  GLU137     -0.2457
    115  OE2        9.9770   25.7200   77.3420 O.co2 137  GLU137     -0.2457
    116  N         16.3880   30.3700   67.6280 N.3   140  LYS140     -0.1245
    117  CA        17.1820   31.5570   67.3880 C.3   140  LYS140      0.1561
    118  C         17.7970   31.3770   66.0370 C.2   140  LYS140      0.2260
    119  O         18.0600   30.2380   65.5350 O.2   140  LYS140     -0.2867
    120  CB        18.3120   31.7620   68.4050 C.3   140  LYS140      0.0271
    121  CG        17.9420   32.3550   69.7500 C.3   140  LYS140      0.0035
    122  CD        19.0760   32.1630   70.8020 C.3   140  LYS140      0.0206
    123  CE        18.5510   32.1520   72.2490 C.3   140  LYS140      0.1093
    124  NZ        18.5780   30.8110   72.9210 N.3   140  LYS140     -0.1314
    125  N         14.7880   19.8880   83.9820 N.3   201  GLY201     -0.1225
    126  CA        15.0320   21.2710   83.5820 C.3   201  GLY201      0.1811
    127  C         16.1480   21.4390   82.5570 C.2   201  GLY201      0.2280
    128  O         16.4600   22.5630   82.2210 O.2   201  GLY201     -0.2866
    129  N         17.9750   20.7380   78.6950 N.3   203  SER203     -0.1217
    130  CA        17.5930   20.8310   77.3150 C.3   203  SER203      0.1889
    131  C         18.5810   20.1120   76.4210 C.2   203  SER203      0.2288
    132  O         19.7290   19.8180   76.8120 O.2   203  SER203     -0.2866
    133  CB        17.5620   22.3090   76.8690 C.3   203  SER203      0.2089
    134  OG        16.5250   23.0440   77.4880 O.3   203  SER203     -0.2183
    135  N         20.1290   21.1390   72.8860 N.3   205  LEU205     -0.1245
    136  CA        20.3340   22.2900   72.0520 C.3   205  LEU205      0.1561
    137  C         20.7480   21.7740   70.6550 C.2   205  LEU205      0.2260
    138  O         21.8090   21.1520   70.5110 O.2   205  LEU205     -0.2867
    139  CB        21.4420   23.1710   72.6120 C.3   205  LEU205      0.0270
    140  CG        21.4950   24.5530   71.9670 C.3   205  LEU205      0.0019
    141  CD1       20.3340   25.3960   72.4390 C.3   205  LEU205      0.0001
    142  CD2       22.8290   25.1460   72.2380 C.3   205  LEU205      0.0001
    143  N         22.3520   20.5320   77.6310 N.3   219  ILE219     -0.1231
    144  CA        22.7800   21.6790   78.4240 C.3   219  ILE219      0.1692
    145  C         21.8430   21.8910   79.6180 C.2   219  ILE219      0.2592
    146  O         20.7490   21.3590   79.6580 O.2   219  ILE219     -0.2718
    147  CB        22.7870   23.0060   77.5620 C.3   219  ILE219      0.0266
    148  CG1       21.3820   23.2730   77.0130 C.3   219  ILE219      0.0019
    149  CG2       23.8610   22.9240   76.4560 C.3   219  ILE219      0.0020
    150  CD1       21.1860   24.6860   76.4070 C.3   219  ILE219      0.0001
    151  N         22.3410   22.6770   80.5690 N.am  220  ASP220     -0.1974
    152  CA        21.5680   23.2040   81.7090 C.3   220  ASP220      0.1709
    153  C         21.2980   22.2010   82.7920 C.2   220  ASP220      0.2293
    154  O         20.2230   21.5710   82.8590 O.2   220  ASP220     -0.2864
    155  CB        20.2480   23.8440   81.2960 C.3   220  ASP220      0.1436
    156  CG        19.6840   24.6920   82.4150 C.2   220  ASP220      0.3671
    157  OD1       20.1610   24.5670   83.5990 O.co2 220  ASP220     -0.2456
    158  OD2       18.7790   25.5160   82.2180 O.co2 220  ASP220     -0.2456
@<TRIPOS>BOND
     1   119   118    2
     2    83    84    1
     3   118   117    1
     4    78    77    2
     5    84    85    1
     6    84    87    1
     7   117   116    1
     8   117   120    1
     9    77    76    1
    10    86    85    2
    11    89    87    1
    12    87    88    1
    13    76    79    1
    14    76    75    1
    15   120   121    1
    16    79    80    1
    17    70    69    2
    18    82    80    1
    19    81    80    1
    20    75    69   am
    21    69    68    1
    22   121   122    1
    23   138   137    2
    24   137   136    1
    25   122   123    1
    26    62    61    2
    27    90    91    1
    28    68    71    1
    29    68    67    1
    30    65    64   ar
    31    66    64   ar
    32    58    56   am
    33    71    72    1
    34    64    63    1
    35    61    67   am
    36    61    60    1
    37   140   142    1
    38   140   141    1
    39   140   139    1
    40   136   139    1
    41   136   135    1
    42   123   124    1
    43    91    92    1
    44    91    94    1
    45    63    60    1
    46    93    92    2
    47    74    72    1
    48    56    55    1
    49    56    57    2
    50    72    73    1
    51    60    59    1
    52   109   110    2
    53   109   108    1
    54    55    54    1
    55   107   108    1
    56    94    95    1
    57    59    52   am
    58   108   111    1
    59    52    53    2
    60    52    51    1
    61    54    51    1
    62    95    96   ar
    63    95    97   ar
    64   111   112    1
    65    51    50    1
    66    25    23    1
    67    98    99    1
    68   112   113    1
    69    22    23    1
    70    22    24    1
    71    22    19    1
    72   150   148    1
    73   131   132    2
    74   131   130    1
    75    36    35    1
    76    36    39    1
    77    36    37    1
    78   149   147    1
    79    35    41    1
    80    18    19    1
    81    50    44   am
    82    39    40    1
    83   133   130    1
    84   133   134    1
    85   101   100    2
    86    45    44    2
    87   148   147    1
    88    19    20    1
    89    41    40    1
    90   130   129    1
    91    37    38    2
    92   115   113   ar
    93    99   100    1
    94    99   102    1
    95   113   114   ar
    96    44    43    1
    97   147   144    1
    98   143   144    1
    99   102   103    1
   100   144   145    1
   101    20    21    2
   102    14    16   ar
   103    14    12   ar
   104    16    17   ar
   105    11    12    1
   106    11     8    1
   107    12    13   ar
   108    43    46    1
   109    43    42    1
   110    46    47    1
   111    17    15   ar
   112    13    15   ar
   113   145   146    2
   114   145   151   am
   115   103   104    1
   116    10     9    2
   117     9     8    1
   118    48    47    1
   119     8     7    1
   120    47    49    1
   121   151   152    1
   122   104   105    1
   123   105   106    1
   124     7     3   am
   125   155   152    1
   126   155   156    1
   127   152   153    1
   128    26    27    1
   129     3     4    2
   130     3     2    1
   131   158   156   ar
   132   128   127    2
   133    30    27    1
   134    30    31    1
   135    32    31    1
   136    32    33    1
   137   156   157   ar
   138     1     2    1
   139    34    33    1
   140   127   126    1
   141    27    28    1
   142     5     2    1
   143     5     6    1
   144   153   154    2
   145   126   125    1
   146    28    29    2
