@<TRIPOS>MOLECULE
tmp/1w2cA01.pdb
 138 125 0 0 0
SMALL
GASTEIGER

@<TRIPOS>ATOM
      1  N         13.3720   21.5590   75.8980 N.3    68  LYS68      -0.1245
      2  CA        13.3920   21.1870   77.3420 C.3    68  LYS68       0.1561
      3  C         12.9800   19.7520   77.4720 C.2    68  LYS68       0.2260
      4  O         11.9220   19.3510   76.9710 O.2    68  LYS68      -0.2867
      5  CB        12.5040   22.0720   78.2110 C.3    68  LYS68       0.0271
      6  CG        12.6650   21.7500   79.6960 C.3    68  LYS68       0.0035
      7  CD        12.1170   22.7850   80.6180 C.3    68  LYS68       0.0206
      8  CE        12.9610   24.0670   80.6900 C.3    68  LYS68       0.1093
      9  NZ        12.5390   24.8930   81.9260 N.3    68  LYS68      -0.1314
     10  N          9.1810   18.9740   84.9990 N.3    73  THR73      -0.1218
     11  CA        10.1080   20.1040   84.8430 C.3    73  THR73       0.1862
     12  C         10.4080   20.8610   86.1330 C.2    73  THR73       0.2287
     13  O         11.0760   21.8980   86.1080 O.2    73  THR73      -0.2866
     14  CB         9.5380   21.1130   83.8150 C.3    73  THR73       0.1770
     15  OG1        8.3080   21.6660   84.3170 O.3    73  THR73      -0.2211
     16  CG2        9.1510   20.3900   82.5150 C.3    73  THR73       0.0375
     17  N          3.0940   33.3390   93.4470 N.3    89  ARG89      -0.1245
     18  CA         3.7660   33.9270   92.2990 C.3    89  ARG89       0.1563
     19  C          2.7290   34.6050   91.4170 C.2    89  ARG89       0.2260
     20  O          1.9630   33.9350   90.7260 O.2    89  ARG89      -0.2867
     21  CB         4.5010   32.8280   91.5140 C.3    89  ARG89       0.0307
     22  CG         5.6270   32.0950   92.2890 C.3    89  ARG89       0.0489
     23  CD         6.9780   32.8100   92.2990 C.3    89  ARG89       0.2205
     24  NE         7.3830   33.2500   90.9580 N.pl3  89  ARG89      -0.0865
     25  CZ         8.4830   32.8500   90.3020 C.cat  89  ARG89       0.5346
     26  NH1        9.3500   32.0030   90.8440 N.pl3  89  ARG89       0.1354
     27  NH2        8.7230   33.3300   89.0860 N.pl3  89  ARG89       0.1354
     28  N          3.1780   34.3330   87.3010 N.3    92  MET92      -0.1245
     29  CA         2.7580   33.0340   86.8040 C.3    92  MET92       0.1570
     30  C          1.2340   32.9900   86.6770 C.2    92  MET92       0.2261
     31  O          0.7160   32.3570   85.7470 O.2    92  MET92      -0.2867
     32  CB         3.3150   31.9230   87.6990 C.3    92  MET92       0.0387
     33  CG         4.8170   31.6480   87.4380 C.3    92  MET92       0.0595
     34  SD         5.6780   30.5790   88.6060 S.3    92  MET92      -0.1393
     35  CE         7.1910   30.0760   87.7140 C.3    92  MET92       0.0692
     36  N         -0.0130   34.9050   83.0740 N.3    95  LYS95      -0.1245
     37  CA         0.2140   34.0740   81.8840 C.3    95  LYS95       0.1561
     38  C         -0.9390   33.0510   81.6960 C.2    95  LYS95       0.2260
     39  O         -1.5020   32.9120   80.6090 O.2    95  LYS95      -0.2867
     40  CB         1.5620   33.3500   81.9960 C.3    95  LYS95       0.0271
     41  CG         2.7990   34.2750   81.9900 C.3    95  LYS95       0.0035
     42  CD         3.7910   33.9910   83.1410 C.3    95  LYS95       0.0206
     43  CE         5.2520   33.8690   82.6640 C.3    95  LYS95       0.1093
     44  NZ         6.1740   33.3620   83.7500 N.3    95  LYS95      -0.1314
     45  N          4.5920   27.7120   92.1320 N.3   116  LYS116     -0.1245
     46  CA         5.4760   27.3090   91.0430 C.3   116  LYS116      0.1561
     47  C          5.1470   25.9220   90.4780 C.2   116  LYS116      0.2260
     48  O          4.9620   25.7950   89.2670 O.2   116  LYS116     -0.2867
     49  CB         6.9510   27.3840   91.4880 C.3   116  LYS116      0.0271
     50  CG         7.9590   26.6750   90.5130 C.3   116  LYS116      0.0035
     51  CD         9.3980   27.1730   90.6760 C.3   116  LYS116      0.0206
     52  CE        10.2800   26.8120   89.4580 C.3   116  LYS116      0.1093
     53  NZ        11.7230   27.0880   89.7180 N.3   116  LYS116     -0.1314
     54  N          2.1230   26.1010   88.4460 N.3   119  TYR119     -0.1227
     55  CA         2.4290   26.7920   87.1850 C.3   119  TYR119      0.1736
     56  C          3.1930   25.8800   86.1810 C.2   119  TYR119      0.2595
     57  O          2.9030   25.8610   84.9870 O.2   119  TYR119     -0.2718
     58  CB         3.2810   28.0310   87.4450 C.3   119  TYR119      0.0548
     59  CG         3.7120   28.6930   86.1590 C.ar  119  TYR119     -0.0200
     60  CD1        2.8240   29.4630   85.4360 C.ar  119  TYR119     -0.0009
     61  CD2        4.9900   28.4590   85.6120 C.ar  119  TYR119     -0.0009
     62  CE1        3.2090   30.0620   84.2210 C.ar  119  TYR119      0.0417
     63  CE2        5.3820   29.0430   84.4030 C.ar  119  TYR119      0.0417
     64  CZ         4.4890   29.8390   83.7140 C.ar  119  TYR119      0.1957
     65  OH         4.8370   30.4130   82.5190 O.3   119  TYR119     -0.2866
     66  N          4.1720   25.1620   86.6970 N.am  120  MET120     -0.1979
     67  CA         4.9990   24.2670   85.8890 C.3   120  MET120      0.1605
     68  C          4.1600   23.0910   85.3770 C.2   120  MET120      0.2287
     69  O          4.3320   22.6820   84.2510 O.2   120  MET120     -0.2864
     70  CB         6.1990   23.7760   86.6910 C.3   120  MET120      0.0413
     71  CG         7.1200   24.8230   87.2490 C.3   120  MET120      0.0598
     72  SD         7.9560   25.8120   86.0800 S.3   120  MET120     -0.1393
     73  CE         9.4690   24.7060   85.7330 C.3   120  MET120      0.0692
     74  N          1.9020   24.2500   82.4790 N.3   123  ARG123     -0.1245
     75  CA         2.8060   24.4700   81.3380 C.3   123  ARG123      0.1563
     76  C          3.1740   23.1750   80.6650 C.2   123  ARG123      0.2260
     77  O          3.2250   23.0900   79.4240 O.2   123  ARG123     -0.2867
     78  CB         4.0410   25.1790   81.8560 C.3   123  ARG123      0.0307
     79  CG         4.9150   25.6930   80.8490 C.3   123  ARG123      0.0489
     80  CD         4.6870   27.1580   80.4250 C.3   123  ARG123      0.2205
     81  NE         5.9880   27.6770   79.9910 N.pl3 123  ARG123     -0.0865
     82  CZ         6.6990   27.2580   78.9450 C.cat 123  ARG123      0.5346
     83  NH1        6.2420   26.3700   78.0710 N.pl3 123  ARG123      0.1354
     84  NH2        7.8950   27.7960   78.7290 N.pl3 123  ARG123      0.1354
     85  N          9.5760   19.4770   75.2100 N.3   135  ARG135     -0.1245
     86  CA         8.9230   20.5410   74.5010 C.3   135  ARG135      0.1563
     87  C          9.8830   21.4880   73.8770 C.2   135  ARG135      0.2260
     88  O         10.9970   21.6770   74.3680 O.2   135  ARG135     -0.2867
     89  CB         7.9800   21.3210   75.4380 C.3   135  ARG135      0.0307
     90  CG         8.6100   22.0880   76.5350 C.3   135  ARG135      0.0489
     91  CD         7.6270   22.9760   77.2870 C.3   135  ARG135      0.2205
     92  NE         8.2120   23.7030   78.4070 N.pl3 135  ARG135     -0.0865
     93  CZ         7.8590   23.5430   79.6850 C.cat 135  ARG135      0.5346
     94  NH1        6.9680   22.6410   80.0280 N.pl3 135  ARG135      0.1354
     95  NH2        8.4280   24.2810   80.6410 N.pl3 135  ARG135      0.1354
     96  N         11.2060   25.0900   73.3660 N.3   137  GLU137     -0.1245
     97  CA        11.2230   26.3390   74.1190 C.3   137  GLU137      0.1567
     98  C         11.4740   27.6130   73.2760 C.2   137  GLU137      0.2260
     99  O         10.9290   28.6980   73.5310 O.2   137  GLU137     -0.2867
    100  CB        12.3230   26.2370   75.1650 C.3   137  GLU137      0.0388
    101  CG        12.0060   25.1980   76.2260 C.3   137  GLU137      0.1160
    102  CD        11.2040   25.8130   77.3700 C.2   137  GLU137      0.3649
    103  OE1       11.8140   26.4130   78.2600 O.co2 137  GLU137     -0.2457
    104  OE2        9.9770   25.7200   77.3420 O.co2 137  GLU137     -0.2457
    105  N          4.2970   27.9450   73.5470 N.3   151  LYS151     -0.1245
    106  CA         3.6840   27.4720   74.7880 C.3   151  LYS151      0.1561
    107  C          2.5040   26.5050   74.5920 C.2   151  LYS151      0.2260
    108  O          2.2690   25.6600   75.4510 O.2   151  LYS151     -0.2867
    109  CB         3.3800   28.6740   75.7350 C.3   151  LYS151      0.0271
    110  CG         4.7080   29.0670   76.4920 C.3   151  LYS151      0.0035
    111  CD         4.7970   30.4810   77.0490 C.3   151  LYS151      0.0206
    112  CE         6.2650   30.9100   77.2720 C.3   151  LYS151      0.1093
    113  NZ         7.1800   30.8740   76.0430 N.3   151  LYS151     -0.1314
    114  N         14.7880   19.8880   83.9820 N.3   201  GLY201     -0.1225
    115  CA        15.0320   21.2710   83.5820 C.3   201  GLY201      0.1811
    116  C         16.1480   21.4390   82.5570 C.2   201  GLY201      0.2280
    117  O         16.4600   22.5630   82.2210 O.2   201  GLY201     -0.2866
    118  N         22.3410   22.6770   80.5690 N.3   220  ASP220     -0.1239
    119  CA        21.5680   23.2040   81.7090 C.3   220  ASP220      0.1674
    120  C         21.2980   22.2010   82.7920 C.2   220  ASP220      0.2266
    121  O         20.2230   21.5710   82.8590 O.2   220  ASP220     -0.2867
    122  CB        20.2480   23.8440   81.2960 C.3   220  ASP220      0.1410
    123  CG        19.6840   24.6920   82.4150 C.2   220  ASP220      0.3668
    124  OD1       20.1610   24.5670   83.5990 O.co2 220  ASP220     -0.2456
    125  OD2       18.7790   25.5160   82.2180 O.co2 220  ASP220     -0.2456
    126  N         21.3920   22.7940   86.0800 N.3   222  GLY222     -0.1210
    127  CA        21.0000   23.4630   87.3220 C.3   222  GLY222      0.1956
    128  C         19.9820   22.7640   88.2040 C.2   222  GLY222      0.2611
    129  O         19.9320   23.0670   89.3940 O.2   222  GLY222     -0.2717
    130  N         19.1470   21.8730   87.6570 N.am  223  LYS223     -0.1979
    131  CA        18.1500   21.1590   88.4420 C.3   223  LYS223      0.1596
    132  C         18.3590   19.6450   88.3710 C.2   223  LYS223      0.2287
    133  O         17.4180   18.8690   88.5820 O.2   223  LYS223     -0.2864
    134  CB        16.7500   21.5320   87.9850 C.3   223  LYS223      0.0298
    135  CG        16.1560   22.8460   88.6240 C.3   223  LYS223      0.0038
    136  CD        14.7960   23.1380   87.9040 C.3   223  LYS223      0.0206
    137  CE        13.7810   23.7810   88.8480 C.3   223  LYS223      0.1093
    138  NZ        12.3430   23.8070   88.3200 N.3   223  LYS223     -0.1314
@<TRIPOS>BOND
     1    98    99    2
     2    98    97    1
     3    96    97    1
     4   105   106    1
     5    87    88    2
     6    87    86    1
     7    97   100    1
     8    86    85    1
     9    86    89    1
    10   107   106    1
    11   107   108    2
    12   106   109    1
    13   100   101    1
    14    89    90    1
    15   109   110    1
    16     1     2    1
    17   113   112    1
    18   101   102    1
    19   110   111    1
    20    90    91    1
    21     4     3    2
    22   111   112    1
    23    91    92    1
    24     2     3    1
    25     2     5    1
    26   104   102   ar
    27   102   103   ar
    28    83    82    1
    29     5     6    1
    30    92    93    2
    31    84    82    1
    32    82    81    2
    33    77    76    2
    34    93    94    1
    35    93    95    1
    36     6     7    1
    37    81    80    1
    38    80    79    1
    39   118   119    1
    40    39    38    2
    41     7     8    1
    42    76    75    1
    43     8     9    1
    44    79    78    1
    45   122   119    1
    46   122   123    1
    47    75    78    1
    48    75    74    1
    49    38    37    1
    50   119   120    1
    51    37    40    1
    52    37    36    1
    53    41    40    1
    54    41    42    1
    55   125   123   ar
    56   117   116    2
    57   123   124   ar
    58    16    14    1
    59    65    64    1
    60   116   115    1
    61    43    42    1
    62    43    44    1
    63   120   121    2
    64   115   114    1
    65    64    62   ar
    66    64    63   ar
    67    14    15    1
    68    14    11    1
    69    62    60   ar
    70    69    68    2
    71    63    61   ar
    72    11    10    1
    73    11    12    1
    74    57    56    2
    75    68    67    1
    76    60    59   ar
    77    61    59   ar
    78    73    72    1
    79    31    30    2
    80    67    70    1
    81    67    66    1
    82    72    71    1
    83   126   127    1
    84    13    12    2
    85    59    58    1
    86    56    66   am
    87    56    55    1
    88    30    29    1
    89    70    71    1
    90    29    28    1
    91    29    32    1
    92    55    58    1
    93    55    54    1
    94   127   128    1
    95    33    32    1
    96    33    34    1
    97   130   128   am
    98   130   131    1
    99    35    34    1
   100   136   135    1
   101   136   137    1
   102   134   131    1
   103   134   135    1
   104   128   129    2
   105   138   137    1
   106   132   131    1
   107   132   133    2
   108    27    25    1
   109    48    47    2
   110    52    53    1
   111    52    51    1
   112    25    26    1
   113    25    24    2
   114    47    46    1
   115    50    51    1
   116    50    49    1
   117    20    19    2
   118    24    23    1
   119    46    49    1
   120    46    45    1
   121    19    18    1
   122    21    22    1
   123    21    18    1
   124    22    23    1
   125    18    17    1
