@<TRIPOS>MOLECULE
tmp/1w2dA01.pdb
 127 115 0 0 0
SMALL
GASTEIGER

@<TRIPOS>ATOM
      1  N         13.6020   21.4600   75.8140 N.3    68  LYS68      -0.1245
      2  CA        13.6370   21.0240   77.2340 C.3    68  LYS68       0.1561
      3  C         13.2060   19.5800   77.3440 C.2    68  LYS68       0.2260
      4  O         12.1400   19.2300   76.8840 O.2    68  LYS68      -0.2867
      5  CB        12.7380   21.8590   78.1190 C.3    68  LYS68       0.0271
      6  CG        12.8870   21.5470   79.5740 C.3    68  LYS68       0.0035
      7  CD        12.2840   22.6490   80.4320 C.3    68  LYS68       0.0206
      8  CE        13.1730   23.8690   80.5070 C.3    68  LYS68       0.1093
      9  NZ        12.8100   24.7260   81.7100 N.3    68  LYS68      -0.1314
     10  N          3.1940   33.3630   93.2560 N.3    89  ARG89      -0.1245
     11  CA         3.8980   34.0570   92.2050 C.3    89  ARG89       0.1563
     12  C          2.8460   34.7170   91.3640 C.2    89  ARG89       0.2260
     13  O          2.0200   34.0300   90.7600 O.2    89  ARG89      -0.2867
     14  CB         4.7000   33.0210   91.3920 C.3    89  ARG89       0.0307
     15  CG         5.7550   32.2230   92.2210 C.3    89  ARG89       0.0489
     16  CD         7.0820   32.9480   92.4130 C.3    89  ARG89       0.2205
     17  NE         7.6500   33.3140   91.1140 N.pl3  89  ARG89      -0.0865
     18  CZ         8.6140   32.6460   90.4720 C.cat  89  ARG89       0.5346
     19  NH1        9.1800   31.5660   90.9970 N.pl3  89  ARG89       0.1354
     20  NH2        9.0250   33.0840   89.2970 N.pl3  89  ARG89       0.1354
     21  N          3.4590   34.1140   87.5120 N.3    92  MET92      -0.1245
     22  CA         3.1850   32.7610   87.0320 C.3    92  MET92       0.1570
     23  C          1.6660   32.6980   86.8560 C.2    92  MET92       0.2261
     24  O          1.1810   31.9400   86.0160 O.2    92  MET92      -0.2867
     25  CB         3.7340   31.6750   87.9920 C.3    92  MET92       0.0387
     26  CG         5.2580   31.2470   87.8030 C.3    92  MET92       0.0595
     27  SD         5.8080   29.9570   89.0090 S.3    92  MET92      -0.1393
     28  CE         7.5170   29.6160   88.4870 C.3    92  MET92       0.0692
     29  N         -0.0610   34.9530   82.9900 N.3    95  LYS95      -0.1245
     30  CA         0.1190   34.1600   81.7700 C.3    95  LYS95       0.1561
     31  C         -1.0360   33.1310   81.6140 C.2    95  LYS95       0.2260
     32  O         -1.6400   32.9620   80.5520 O.2    95  LYS95      -0.2867
     33  CB         1.4790   33.4270   81.8570 C.3    95  LYS95       0.0271
     34  CG         2.6980   34.3320   82.2330 C.3    95  LYS95       0.0035
     35  CD         3.6960   33.6420   83.2140 C.3    95  LYS95       0.0206
     36  CE         5.1820   33.9710   82.9400 C.3    95  LYS95       0.1093
     37  NZ         6.2080   33.1620   83.7880 N.3    95  LYS95      -0.1314
     38  N          4.6940   27.2950   92.3560 N.3   116  LYS116     -0.1245
     39  CA         5.6590   26.9240   91.2970 C.3   116  LYS116      0.1561
     40  C          5.2800   25.5900   90.6460 C.2   116  LYS116      0.2260
     41  O          5.0740   25.5610   89.4460 O.2   116  LYS116     -0.2867
     42  CB         7.1130   26.8780   91.8060 C.3   116  LYS116      0.0271
     43  CG         8.1170   26.1300   90.8300 C.3   116  LYS116      0.0035
     44  CD         9.5550   26.7090   90.8840 C.3   116  LYS116      0.0206
     45  CE        10.3440   26.4780   89.5550 C.3   116  LYS116      0.1093
     46  NZ        11.6180   27.2980   89.4640 N.3   116  LYS116     -0.1314
     47  N          2.2660   25.8860   88.4310 N.3   119  TYR119     -0.1227
     48  CA         2.4870   26.6560   87.2050 C.3   119  TYR119      0.1736
     49  C          3.1890   25.7630   86.1610 C.2   119  TYR119      0.2595
     50  O          2.8280   25.7400   84.9710 O.2   119  TYR119     -0.2718
     51  CB         3.3810   27.8620   87.4670 C.3   119  TYR119      0.0548
     52  CG         3.7630   28.5290   86.1850 C.ar  119  TYR119     -0.0200
     53  CD1        2.7950   29.1370   85.4020 C.ar  119  TYR119     -0.0009
     54  CD2        5.0800   28.4630   85.6920 C.ar  119  TYR119     -0.0009
     55  CE1        3.1290   29.7440   84.1910 C.ar  119  TYR119      0.0417
     56  CE2        5.4090   29.0350   84.4740 C.ar  119  TYR119      0.0417
     57  CZ         4.4450   29.6760   83.7310 C.ar  119  TYR119      0.1957
     58  OH         4.7520   30.2440   82.5040 O.3   119  TYR119     -0.2866
     59  N          4.1920   25.0620   86.6690 N.am  120  MET120     -0.1979
     60  CA         5.0540   24.1810   85.8640 C.3   120  MET120      0.1605
     61  C          4.2820   22.9760   85.3370 C.2   120  MET120      0.2287
     62  O          4.4850   22.5510   84.1970 O.2   120  MET120     -0.2864
     63  CB         6.2310   23.6970   86.7350 C.3   120  MET120      0.0413
     64  CG         7.1990   24.7750   87.2710 C.3   120  MET120      0.0598
     65  SD         7.9730   25.6880   85.9870 S.3   120  MET120     -0.1393
     66  CE         9.7050   24.8370   86.0250 C.3   120  MET120      0.0692
     67  N          2.2240   24.1620   82.4480 N.3   123  ARG123     -0.1245
     68  CA         3.0990   24.3500   81.2350 C.3   123  ARG123      0.1563
     69  C          3.3960   23.0070   80.5560 C.2   123  ARG123      0.2260
     70  O          3.4400   22.9090   79.3310 O.2   123  ARG123     -0.2867
     71  CB         4.4310   24.9850   81.6070 C.3   123  ARG123      0.0307
     72  CG         4.4640   26.4990   81.5800 C.3   123  ARG123      0.0489
     73  CD         4.7120   27.0570   80.1940 C.3   123  ARG123      0.2205
     74  NE         6.0740   27.4750   79.9190 N.pl3 123  ARG123     -0.0865
     75  CZ         6.8500   27.0450   78.9150 C.cat 123  ARG123      0.5346
     76  NH1        6.4640   26.0920   78.0490 N.pl3 123  ARG123      0.1354
     77  NH2        8.0600   27.5730   78.7760 N.pl3 123  ARG123      0.1354
     78  N          9.7400   19.3360   75.1550 N.3   135  ARG135     -0.1245
     79  CA         9.1140   20.4360   74.4550 C.3   135  ARG135      0.1563
     80  C         10.0790   21.4010   73.8350 C.2   135  ARG135      0.2260
     81  O         11.1410   21.5990   74.3210 O.2   135  ARG135     -0.2867
     82  CB         8.1760   21.2160   75.4110 C.3   135  ARG135      0.0307
     83  CG         8.7740   21.9160   76.5550 C.3   135  ARG135      0.0489
     84  CD         7.7520   22.8590   77.2750 C.3   135  ARG135      0.2205
     85  NE         8.3370   23.5450   78.3910 N.pl3 135  ARG135     -0.0865
     86  CZ         8.0040   23.3940   79.6710 C.cat 135  ARG135      0.5346
     87  NH1        7.1200   22.4940   80.0410 N.pl3 135  ARG135      0.1354
     88  NH2        8.6450   24.1060   80.5960 N.pl3 135  ARG135      0.1354
     89  N         11.4820   24.9360   73.2790 N.3   137  GLU137     -0.1245
     90  CA        11.4740   26.1780   74.0550 C.3   137  GLU137      0.1567
     91  C         11.7220   27.4310   73.2170 C.2   137  GLU137      0.2260
     92  O         11.1760   28.4850   73.4590 O.2   137  GLU137     -0.2867
     93  CB        12.5410   26.1330   75.1470 C.3   137  GLU137      0.0388
     94  CG        12.2190   25.1180   76.2420 C.3   137  GLU137      0.1160
     95  CD        11.3930   25.7000   77.3700 C.2   137  GLU137      0.3649
     96  OE1       11.9950   26.2350   78.3140 O.co2 137  GLU137     -0.2457
     97  OE2       10.1580   25.6290   77.2760 O.co2 137  GLU137     -0.2457
     98  N          4.3660   27.7950   73.4630 N.3   151  LYS151     -0.1245
     99  CA         3.8040   27.3740   74.7430 C.3   151  LYS151      0.1561
    100  C          2.7030   26.3460   74.5590 C.2   151  LYS151      0.2260
    101  O          2.5020   25.5050   75.4160 O.2   151  LYS151     -0.2867
    102  CB         3.2660   28.5950   75.5170 C.3   151  LYS151      0.0271
    103  CG         4.1940   29.1260   76.5980 C.3   151  LYS151      0.0035
    104  CD         5.6090   29.3640   76.1340 C.3   151  LYS151      0.0206
    105  CE         6.2160   30.6790   76.6740 C.3   151  LYS151      0.1093
    106  NZ         7.5300   30.9630   75.9470 N.3   151  LYS151     -0.1314
    107  N         15.0050   19.7330   83.8690 N.3   201  GLY201     -0.1225
    108  CA        15.2640   21.0900   83.4050 C.3   201  GLY201      0.1811
    109  C         16.4250   21.2460   82.4350 C.2   201  GLY201      0.2280
    110  O         16.8160   22.3520   82.1400 O.2   201  GLY201     -0.2866
    111  N         22.4700   22.6140   80.3750 N.3   220  ASP220     -0.1239
    112  CA        21.7080   23.0870   81.5340 C.3   220  ASP220      0.1674
    113  C         21.4840   22.0430   82.6140 C.2   220  ASP220      0.2266
    114  O         20.4480   21.3810   82.6800 O.2   220  ASP220     -0.2867
    115  CB        20.3610   23.7280   81.1760 C.3   220  ASP220      0.1410
    116  CG        19.7680   24.4850   82.3860 C.2   220  ASP220      0.3668
    117  OD1       20.3560   24.3960   83.5340 O.co2 220  ASP220     -0.2456
    118  OD2       18.7490   25.1850   82.2930 O.co2 220  ASP220     -0.2456
    119  N         19.2990   21.7750   87.5250 N.3   223  LYS223     -0.1245
    120  CA        18.3660   21.0250   88.3290 C.3   223  LYS223      0.1561
    121  C         18.5690   19.5110   88.2200 C.2   223  LYS223      0.2260
    122  O         17.6140   18.7280   88.3970 O.2   223  LYS223     -0.2867
    123  CB        16.9470   21.4500   88.0060 C.3   223  LYS223      0.0271
    124  CG        16.5820   22.8520   88.6260 C.3   223  LYS223      0.0035
    125  CD        15.4140   23.4900   87.9000 C.3   223  LYS223      0.0206
    126  CE        14.1070   22.7470   88.0400 C.3   223  LYS223      0.1093
    127  NZ        12.8380   23.6730   88.0230 N.3   223  LYS223     -0.1314
@<TRIPOS>BOND
     1    91    92    2
     2    91    90    1
     3    89    90    1
     4    98    99    1
     5    80    81    2
     6    80    79    1
     7    90    93    1
     8    79    78    1
     9    79    82    1
    10   100    99    1
    11   100   101    2
    12    99   102    1
    13    93    94    1
    14    82    83    1
    15   102   103    1
    16     1     2    1
    17   106   105    1
    18   104   103    1
    19   104   105    1
    20    94    95    1
    21    83    84    1
    22     4     3    2
    23     2     3    1
    24     2     5    1
    25    84    85    1
    26    97    95   ar
    27    95    96   ar
    28    76    75    1
    29     5     6    1
    30    85    86    2
    31    77    75    1
    32    75    74    2
    33    70    69    2
    34     6     7    1
    35    86    87    1
    36    86    88    1
    37    74    73    1
    38    73    72    1
    39   111   112    1
    40     7     8    1
    41     8     9    1
    42    32    31    2
    43    69    68    1
    44   115   112    1
    45   115   116    1
    46    68    71    1
    47    68    67    1
    48   112   113    1
    49    72    71    1
    50    31    30    1
    51    30    33    1
    52    30    29    1
    53    33    34    1
    54   110   109    2
    55    34    35    1
    56   118   116   ar
    57   116   117   ar
    58   109   108    1
    59    58    57    1
    60   113   114    2
    61    36    35    1
    62    36    37    1
    63   108   107    1
    64    57    55   ar
    65    57    56   ar
    66    55    53   ar
    67    62    61    2
    68    56    54   ar
    69    50    49    2
    70    61    60    1
    71    53    52   ar
    72    54    52   ar
    73    60    59    1
    74    60    63    1
    75    65    66    1
    76    65    64    1
    77    24    23    2
    78    49    59   am
    79    49    48    1
    80    52    51    1
    81    63    64    1
    82    23    22    1
    83    22    21    1
    84    22    25    1
    85    48    51    1
    86    48    47    1
    87   119   120    1
    88    26    25    1
    89    26    27    1
    90   125   126    1
    91   125   124    1
    92   123   120    1
    93   123   124    1
    94   127   126    1
    95   121   120    1
    96   121   122    2
    97    28    27    1
    98    20    18    1
    99    41    40    2
   100    46    45    1
   101    45    44    1
   102    18    19    1
   103    18    17    2
   104    40    39    1
   105    13    12    2
   106    43    44    1
   107    43    42    1
   108    17    16    1
   109    39    42    1
   110    39    38    1
   111    12    11    1
   112    14    11    1
   113    14    15    1
   114    11    10    1
   115    15    16    1
