@<TRIPOS>MOLECULE
tmp/1w2gA00.pdb
 134 129 0 0 0
SMALL
GASTEIGER

@<TRIPOS>ATOM
      1  N         29.3880   20.2430   93.3130 N.3     9  ASP9       -0.1239
      2  CA        28.7970   21.4180   93.9400 C.3     9  ASP9        0.1674
      3  C         28.2910   21.0370   95.3280 C.2     9  ASP9        0.2266
      4  O         27.4760   20.1200   95.4710 O.2     9  ASP9       -0.2867
      5  CB        27.6340   21.9410   93.0910 C.3     9  ASP9        0.1410
      6  CG        28.0310   22.5190   91.7860 C.2     9  ASP9        0.3668
      7  OD1       29.2250   22.9070   91.6030 O.co2   9  ASP9       -0.2456
      8  OD2       27.1260   22.6820   90.9010 O.co2   9  ASP9       -0.2456
      9  N         38.8210   28.4370   90.3990 N.3    36  PHE36      -0.1228
     10  CA        38.2940   28.3990   89.0370 C.3    36  PHE36       0.1721
     11  C         36.8320   27.9580   89.0580 C.2    36  PHE36       0.2437
     12  O         36.4410   27.1270   89.8820 O.2    36  PHE36      -0.2733
     13  CB        39.1030   27.4260   88.1810 C.3    36  PHE36       0.0547
     14  CG        40.4850   27.9010   87.8820 C.ar   36  PHE36      -0.0202
     15  CD1       40.6990   28.8850   86.9200 C.ar   36  PHE36      -0.0042
     16  CD2       41.5730   27.3980   88.5860 C.ar   36  PHE36      -0.0042
     17  CE1       41.9760   29.3630   86.6620 C.ar   36  PHE36      -0.0003
     18  CE2       42.8550   27.8700   88.3380 C.ar   36  PHE36      -0.0003
     19  CZ        43.0580   28.8550   87.3730 C.ar   36  PHE36      -0.0000
     20  N         35.9980   28.5130   88.1590 N.am   37  PRO37      -0.2729
     21  CA        36.3010   29.5150   87.1310 C.3    37  PRO37       0.1401
     22  C         36.6070   30.8820   87.7470 C.2    37  PRO37       0.2269
     23  O         36.0990   31.2240   88.8180 O.2    37  PRO37      -0.2865
     24  CB        35.0150   29.5590   86.2990 C.3    37  PRO37       0.0296
     25  CG        34.3800   28.2340   86.5490 C.3    37  PRO37       0.0237
     26  CD        34.6150   28.0330   88.0100 C.3    37  PRO37       0.0939
     27  N         35.4980   33.7820   87.7920 N.3    39  TYR39      -0.1241
     28  CA        34.3530   34.6460   87.5410 C.3    39  TYR39       0.1605
     29  C         34.6860   36.1190   87.7530 C.2    39  TYR39       0.2264
     30  O         35.3180   36.4930   88.7400 O.2    39  TYR39      -0.2867
     31  CB        33.1930   34.2250   88.4420 C.3    39  TYR39       0.0534
     32  CG        32.6390   32.8690   88.0830 C.ar   39  TYR39      -0.0201
     33  CD1       32.2540   31.9650   89.0700 C.ar   39  TYR39      -0.0009
     34  CD2       32.4870   32.4940   86.7480 C.ar   39  TYR39      -0.0009
     35  CE1       31.7260   30.7150   88.7370 C.ar   39  TYR39       0.0417
     36  CE2       31.9620   31.2540   86.4040 C.ar   39  TYR39       0.0417
     37  CZ        31.5820   30.3710   87.4030 C.ar   39  TYR39       0.1957
     38  OH        31.0420   29.1550   87.0540 O.3    39  TYR39      -0.2866
     39  N         25.4670   28.9350   81.3110 N.3    52  LEU52      -0.1245
     40  CA        24.8900   27.9770   82.2440 C.3    52  LEU52       0.1561
     41  C         23.5900   28.5180   82.8230 C.2    52  LEU52       0.2260
     42  O         22.8360   27.7860   83.4580 O.2    52  LEU52      -0.2867
     43  CB        25.8710   27.6630   83.3760 C.3    52  LEU52       0.0270
     44  CG        27.1050   26.8570   82.9610 C.3    52  LEU52       0.0019
     45  CD1       27.9210   26.5160   84.1910 C.3    52  LEU52       0.0001
     46  CD2       26.6720   25.5920   82.2290 C.3    52  LEU52       0.0001
     47  N         35.9830   26.7870   79.8180 N.3    70  PHE70      -0.1241
     48  CA        36.6240   26.6680   81.1230 C.3    70  PHE70       0.1605
     49  C         38.1270   26.4530   80.9480 C.2    70  PHE70       0.2264
     50  O         38.9320   26.9020   81.7670 O.2    70  PHE70      -0.2867
     51  CB        36.0170   25.5090   81.9220 C.3    70  PHE70       0.0534
     52  CG        34.6050   25.7590   82.3680 C.ar   70  PHE70      -0.0203
     53  CD1       33.5750   24.9190   81.9630 C.ar   70  PHE70      -0.0042
     54  CD2       34.3030   26.8430   83.1930 C.ar   70  PHE70      -0.0042
     55  CE1       32.2670   25.1510   82.3690 C.ar   70  PHE70      -0.0003
     56  CE2       32.9930   27.0850   83.6040 C.ar   70  PHE70      -0.0003
     57  CZ        31.9760   26.2370   83.1920 C.ar   70  PHE70      -0.0000
     58  N         41.3050   28.9480   82.2110 N.3    74  ARG74      -0.1245
     59  CA        42.5110   28.5160   82.9010 C.3    74  ARG74       0.1563
     60  C         43.7430   28.9150   82.0840 C.2    74  ARG74       0.2260
     61  O         44.7820   29.2750   82.6430 O.2    74  ARG74      -0.2867
     62  CB        42.4960   26.9930   83.1210 C.3    74  ARG74       0.0307
     63  CG        41.7410   26.5510   84.3730 C.3    74  ARG74       0.0489
     64  CD        41.8950   25.0590   84.6300 C.3    74  ARG74       0.2205
     65  NE        41.0500   24.2590   83.7440 N.pl3  74  ARG74      -0.0865
     66  CZ        39.7410   24.0920   83.9070 C.cat  74  ARG74       0.5346
     67  NH1       39.1110   24.6630   84.9350 N.pl3  74  ARG74       0.1354
     68  NH2       39.0550   23.3730   83.0300 N.pl3  74  ARG74       0.1354
     69  N         39.2110   23.8240   92.4350 N.3    95  ARG95      -0.1245
     70  CA        38.7560   23.3900   91.1110 C.3    95  ARG95       0.1563
     71  C         39.8910   23.6230   90.1140 C.2    95  ARG95       0.2260
     72  O         40.5330   24.6780   90.1130 O.2    95  ARG95      -0.2867
     73  CB        37.5040   24.1420   90.6360 C.3    95  ARG95       0.0307
     74  CG        36.1890   23.5300   91.0800 C.3    95  ARG95       0.0489
     75  CD        35.0150   24.0830   90.2730 C.3    95  ARG95       0.2205
     76  NE        33.7230   23.6650   90.8180 N.pl3  95  ARG95      -0.0865
     77  CZ        33.3020   22.4030   90.8780 C.cat  95  ARG95       0.5346
     78  NH1       32.1080   22.1280   91.3980 N.pl3  95  ARG95       0.1354
     79  NH2       34.0650   21.4170   90.4150 N.pl3  95  ARG95       0.1354
     80  N         38.0900   19.0570   86.9780 N.3    99  SER99      -0.1202
     81  CA        36.6810   19.4550   87.0130 C.3    99  SER99       0.2020
     82  C         36.0890   19.3440   85.6130 C.2    99  SER99       0.2618
     83  O         34.9460   18.9210   85.4300 O.2    99  SER99      -0.2717
     84  CB        36.5280   20.9040   87.4830 C.3    99  SER99       0.2103
     85  OG        36.6410   21.0240   88.8810 O.3    99  SER99      -0.2182
     86  N         36.8810   19.7410   84.6270 N.am  100  ASN100     -0.1974
     87  CA        36.4550   19.7070   83.2350 C.3   100  ASN100      0.1688
     88  C         36.2810   18.2780   82.7460 C.2   100  ASN100      0.2292
     89  O         35.3380   17.9680   82.0120 O.2   100  ASN100     -0.2864
     90  CB        37.4840   20.4320   82.3650 C.3   100  ASN100      0.1181
     91  CG        36.8490   21.4410   81.4430 C.2   100  ASN100      0.2629
     92  OD1       35.6850   21.8100   81.6160 O.2   100  ASN100     -0.2716
     93  ND2       37.6110   21.9090   80.4650 N.am  100  ASN100     -0.0877
     94  N         32.9850   16.8000   84.7300 N.3   103  TYR103     -0.1241
     95  CA        31.6980   17.3040   84.2640 C.3   103  TYR103      0.1605
     96  C         31.4100   16.9530   82.8040 C.2   103  TYR103      0.2264
     97  O         30.2810   16.6040   82.4620 O.2   103  TYR103     -0.2867
     98  CB        31.6000   18.8250   84.4690 C.3   103  TYR103      0.0534
     99  CG        31.2750   19.2150   85.8970 C.ar  103  TYR103     -0.0201
    100  CD1       32.2650   19.2270   86.8830 C.ar  103  TYR103     -0.0009
    101  CD2       29.9600   19.5040   86.2800 C.ar  103  TYR103     -0.0009
    102  CE1       31.9550   19.5110   88.2220 C.ar  103  TYR103      0.0417
    103  CE2       29.6360   19.7890   87.6200 C.ar  103  TYR103      0.0417
    104  CZ        30.6390   19.7880   88.5830 C.ar  103  TYR103      0.1957
    105  OH        30.3300   20.0370   89.9030 O.3   103  TYR103     -0.2866
    106  N         22.5630   27.3980   88.4140 N.3   151  ASP151     -0.1239
    107  CA        22.6290   27.2790   86.9630 C.3   151  ASP151      0.1674
    108  C         22.1520   25.9150   86.4540 C.2   151  ASP151      0.2266
    109  O         21.6290   25.0990   87.2190 O.2   151  ASP151     -0.2867
    110  CB        24.0590   27.5500   86.4920 C.3   151  ASP151      0.1410
    111  CG        25.0880   26.7760   87.2850 C.2   151  ASP151      0.3668
    112  OD1       25.0420   25.5260   87.2690 O.co2 151  ASP151     -0.2456
    113  OD2       25.9430   27.4190   87.9270 O.co2 151  ASP151     -0.2456
    114  N         23.8210   23.3020   85.5350 N.3   153  TYR153     -0.1227
    115  CA        24.5210   22.1660   86.1240 C.3   153  TYR153      0.1736
    116  C         24.0410   21.9240   87.5540 C.2   153  TYR153      0.2595
    117  O         23.7230   20.7920   87.9250 O.2   153  TYR153     -0.2718
    118  CB        26.0320   22.4110   86.1300 C.3   153  TYR153      0.0548
    119  CG        26.7130   22.2780   84.7830 C.ar  153  TYR153     -0.0200
    120  CD1       25.9840   22.3160   83.5860 C.ar  153  TYR153     -0.0009
    121  CD2       28.1010   22.1560   84.7040 C.ar  153  TYR153     -0.0009
    122  CE1       26.6320   22.2400   82.3410 C.ar  153  TYR153      0.0417
    123  CE2       28.7540   22.0820   83.4760 C.ar  153  TYR153      0.0417
    124  CZ        28.0200   22.1270   82.3000 C.ar  153  TYR153      0.1957
    125  OH        28.6860   22.0850   81.0940 O.3   153  TYR153     -0.2866
    126  N         23.9970   22.9960   88.3460 N.am  154  GLU154     -0.1979
    127  CA        23.5560   22.9250   89.7380 C.3   154  GLU154      0.1602
    128  C         22.1860   22.2730   89.8610 C.2   154  GLU154      0.2287
    129  O         21.9690   21.4240   90.7270 O.2   154  GLU154     -0.2864
    130  CB        23.4940   24.3240   90.3620 C.3   154  GLU154      0.0415
    131  CG        24.8520   24.9140   90.6680 C.3   154  GLU154      0.1163
    132  CD        24.8480   26.2490   91.3450 C.2   154  GLU154      0.3649
    133  OE1       24.1960   27.2060   90.9050 O.co2 154  GLU154     -0.2457
    134  OE2       25.5750   26.3780   92.3780 O.co2 154  GLU154     -0.2457
@<TRIPOS>BOND
     1    47    48    1
     2    93    91   am
     3    49    48    1
     4    49    50    2
     5   125   124    1
     6    48    51    1
     7    39    40    1
     8    91    92    2
     9    91    90    1
    10    51    52    1
    11    53    52   ar
    12    53    55   ar
    13    89    88    2
    14    60    61    2
    15    60    59    1
    16    58    59    1
    17    46    44    1
    18    40    41    1
    19    40    43    1
    20   124   122   ar
    21   124   123   ar
    22   122   120   ar
    23    90    87    1
    24    52    54   ar
    25    55    57   ar
    26    97    96    2
    27    88    87    1
    28    96    95    1
    29    41    42    2
    30    59    62    1
    31    44    43    1
    32    44    45    1
    33    68    66    1
    34    62    63    1
    35    57    56   ar
    36    54    56   ar
    37    87    86    1
    38   123   121   ar
    39   120   119   ar
    40    65    66    2
    41    65    64    1
    42    66    67    1
    43    95    98    1
    44    95    94    1
    45    63    64    1
    46    98    99    1
    47    86    82   am
    48   121   119   ar
    49   119   118    1
    50    83    82    2
    51   114   115    1
    52    82    81    1
    53    99   101   ar
    54    99   100   ar
    55   115   118    1
    56   115   116    1
    57   101   103   ar
    58    24    25    1
    59    24    21    1
    60    36    34   ar
    61    36    37   ar
    62   108   107    1
    63   108   109    2
    64   110   107    1
    65   110   111    1
    66    25    26    1
    67    17    15   ar
    68    17    19   ar
    69    34    32   ar
    70   100   102   ar
    71    15    14   ar
    72   107   106    1
    73    80    81    1
    74    81    84    1
    75    38    37    1
    76    21    22    1
    77    21    20    1
    78   112   111   ar
    79   111   113   ar
    80    19    18   ar
    81    37    35   ar
    82    84    85    1
    83    28    29    1
    84    28    27    1
    85    28    31    1
    86   116   117    2
    87   116   126   am
    88   103   104   ar
    89    22    23    2
    90    29    30    2
    91    14    13    1
    92    14    16   ar
    93    26    20    1
    94    32    31    1
    95    32    33   ar
    96    20    11   am
    97    13    10    1
    98   102   104   ar
    99    18    16   ar
   100   126   127    1
   101   104   105    1
   102    35    33   ar
   103    10    11    1
   104    10     9    1
   105    11    12    2
   106   127   128    1
   107   127   130    1
   108   128   129    2
   109    72    71    2
   110    71    70    1
   111    75    76    1
   112    75    74    1
   113   130   131    1
   114    79    77    1
   115    73    74    1
   116    73    70    1
   117   131   132    1
   118    76    77    2
   119    77    78    1
   120     8     6   ar
   121   133   132   ar
   122    70    69    1
   123   132   134   ar
   124     7     6   ar
   125     6     5    1
   126     5     2    1
   127     1     2    1
   128     2     3    1
   129     3     4    2
