@<TRIPOS>MOLECULE
tmp/1w2hA01.pdb
 76 72 0 0 0
SMALL
GASTEIGER

@<TRIPOS>ATOM
      1  N         30.2130   20.6120   93.2140 N.3     9  ASP9       -0.1225
      2  CA        29.8160   21.8610   93.8450 C.3     9  ASP9        0.1805
      3  C         29.1360   21.5410   95.1600 C.2     9  ASP9        0.2598
      4  O         28.2550   20.6860   95.2170 O.2     9  ASP9       -0.2718
      5  CB        28.8610   22.6460   92.9510 C.3     9  ASP9        0.1424
      6  CG        29.5420   23.1880   91.7180 C.2     9  ASP9        0.3668
      7  OD1       30.5720   23.8740   91.8670 O.co2   9  ASP9       -0.2456
      8  OD2       29.0510   22.9250   90.6010 O.co2   9  ASP9       -0.2456
      9  N         29.5520   22.2300   96.2150 N.am   10  GLY10      -0.1942
     10  CA        28.9680   21.9950   97.5200 C.3    10  GLY10       0.2014
     11  C         29.7570   20.9860   98.3280 C.2    10  GLY10       0.2639
     12  O         29.4080   20.6940   99.4710 O.2    10  GLY10      -0.2714
     13  N         30.8260   20.4590   97.7400 N.am   11  ALA11      -0.1963
     14  CA        31.6670   19.4710   98.4130 C.3    11  ALA11       0.1728
     15  C         32.3710   20.0470   99.6310 C.2    11  ALA11       0.2617
     16  O         32.6510   19.3230  100.5800 O.2    11  ALA11      -0.2715
     17  CB        32.6970   18.9110   97.4430 C.3    11  ALA11       0.0334
     18  N         32.6520   21.3500   99.5960 N.am   12  GLY12      -0.1940
     19  CA        33.3340   22.0120  100.6970 C.3    12  GLY12       0.2014
     20  C         34.7670   22.3850  100.3500 C.2    12  GLY12       0.2639
     21  O         35.6090   22.5310  101.2350 O.2    12  GLY12      -0.2714
     22  N         35.0440   22.5620   99.0620 N.am   13  LYS13      -0.1963
     23  CA        36.3890   22.8850   98.5900 C.3    13  LYS13       0.1728
     24  C         36.9520   24.2180   99.0690 C.2    13  LYS13       0.2616
     25  O         38.1000   24.2880   99.5040 O.2    13  LYS13      -0.2715
     26  CB        36.4400   22.8550   97.0570 C.3    13  LYS13       0.0311
     27  CG        36.0660   21.5160   96.4520 C.3    13  LYS13       0.0038
     28  CD        36.3150   21.4710   94.9630 C.3    13  LYS13       0.0206
     29  CE        35.5300   22.5330   94.2150 C.3    13  LYS13       0.1093
     30  NZ        34.0680   22.3570   94.3480 N.3    13  LYS13      -0.1314
     31  N         36.1520   25.2710   98.9680 N.am   14  ARG14      -0.1963
     32  CA        36.5920   26.5970   99.3690 C.3    14  ARG14       0.1729
     33  C         37.1050   26.5510  100.8080 C.2    14  ARG14       0.2616
     34  O         38.1750   27.0780  101.1170 O.2    14  ARG14      -0.2715
     35  CB        35.4310   27.5870   99.2410 C.3    14  ARG14       0.0348
     36  CG        35.9500   28.9790   99.0600 C.3    14  ARG14       0.0492
     37  CD        34.7920   29.9340   99.3640 C.3    14  ARG14       0.2205
     38  NE        34.5200   29.9510  100.8000 N.pl3  14  ARG14      -0.0865
     39  CZ        33.2940   29.7700  101.3270 C.cat  14  ARG14       0.5346
     40  NH1       32.2130   29.5860  100.5460 N.pl3  14  ARG14       0.1354
     41  NH2       33.1590   29.7730  102.6660 N.pl3  14  ARG14       0.1354
     42  N         36.3460   25.8920  101.6770 N.am   15  THR15      -0.1951
     43  CA        36.7080   25.7660  103.0810 C.3    15  THR15       0.1897
     44  C         37.9630   24.9230  103.3010 C.2    15  THR15       0.2313
     45  O         38.8420   25.2930  104.0900 O.2    15  THR15      -0.2863
     46  CB        35.5380   25.1760  103.8850 C.3    15  THR15       0.1794
     47  OG1       34.4740   26.1360  103.9300 O.3    15  THR15      -0.2208
     48  CG2       35.9700   24.8320  105.3060 C.3    15  THR15       0.0378
     49  N         41.2070   26.8930  102.6430 N.3    18  GLU18      -0.1245
     50  CA        41.6580   27.6940  103.7820 C.3    18  GLU18       0.1567
     51  C         42.3430   26.8720  104.8730 C.2    18  GLU18       0.2260
     52  O         43.4070   27.2550  105.3710 O.2    18  GLU18      -0.2867
     53  CB        40.4720   28.4410  104.3990 C.3    18  GLU18       0.0388
     54  CG        39.5610   29.0920  103.3760 C.3    18  GLU18       0.1160
     55  CD        38.3170   29.6970  103.9960 C.2    18  GLU18       0.3649
     56  OE1       37.7160   29.0480  104.8770 O.co2  18  GLU18      -0.2457
     57  OE2       37.9310   30.8130  103.5910 O.co2  18  GLU18      -0.2457
     58  N         41.6600   26.2230   93.8710 N.3    94  ASP94      -0.1239
     59  CA        40.2990   25.8010   94.1880 C.3    94  ASP94       0.1674
     60  C         39.6930   25.4650   92.8210 C.2    94  ASP94       0.2266
     61  O         39.1800   26.3430   92.1230 O.2    94  ASP94      -0.2867
     62  CB        39.5470   26.9490   94.8750 C.3    94  ASP94       0.1410
     63  CG        38.1610   26.5440   95.3490 C.2    94  ASP94       0.3668
     64  OD1       37.5140   27.3430   96.0590 O.co2  94  ASP94      -0.2456
     65  OD2       37.7130   25.4340   95.0080 O.co2  94  ASP94      -0.2456
     66  N         24.2680   19.2590  101.4180 N.3   149  ARG149     -0.1245
     67  CA        25.0630   20.4800  101.4100 C.3   149  ARG149      0.1563
     68  C         25.4470   20.8770   99.9940 C.2   149  ARG149      0.2260
     69  O         24.6340   21.4280   99.2560 O.2   149  ARG149     -0.2867
     70  CB        26.3230   20.3010  102.2600 C.3   149  ARG149      0.0307
     71  CG        27.3350   19.3020  101.7210 C.3   149  ARG149      0.0489
     72  CD        28.4680   19.1420  102.7260 C.3   149  ARG149      0.2205
     73  NE        29.5580   18.2990  102.2470 N.pl3 149  ARG149     -0.0865
     74  CZ        30.6000   17.9470  102.9930 C.cat 149  ARG149      0.5346
     75  NH1       30.6830   18.3640  104.2480 N.pl3 149  ARG149      0.1354
     76  NH2       31.5630   17.1870  102.4860 N.pl3 149  ARG149      0.1354
@<TRIPOS>BOND
     1     8     6   ar
     2     6     7   ar
     3     6     5    1
     4    61    60    2
     5    60    59    1
     6     5     2    1
     7     1     2    1
     8     2     3    1
     9    58    59    1
    10    59    62    1
    11    29    30    1
    12    29    28    1
    13    62    63    1
    14    28    27    1
    15    65    63   ar
    16     3     4    2
    17     3     9   am
    18    63    64   ar
    19     9    10    1
    20    27    26    1
    21    26    23    1
    22    17    14    1
    23    10    11    1
    24    13    11   am
    25    13    14    1
    26    11    12    2
    27    14    15    1
    28    23    22    1
    29    23    24    1
    30    31    24   am
    31    31    32    1
    32    36    35    1
    33    36    37    1
    34    22    20   am
    35    24    25    2
    36    35    32    1
    37    69    68    2
    38    37    38    1
    39    32    33    1
    40    18    15   am
    41    18    19    1
    42    15    16    2
    43    68    67    1
    44    20    19    1
    45    20    21    2
    46    40    39    1
    47    38    39    2
    48    33    34    2
    49    33    42   am
    50    39    41    1
    51    67    66    1
    52    67    70    1
    53    42    43    1
    54    71    70    1
    55    71    72    1
    56    73    72    1
    57    73    74    2
    58    76    74    1
    59    49    50    1
    60    74    75    1
    61    43    44    1
    62    43    46    1
    63    44    45    2
    64    54    55    1
    65    54    53    1
    66    57    55   ar
    67    50    53    1
    68    50    51    1
    69    46    47    1
    70    46    48    1
    71    55    56   ar
    72    51    52    2
