@<TRIPOS>MOLECULE
tmp/1w2hA00.pdb
 145 138 0 0 0
SMALL
GASTEIGER

@<TRIPOS>ATOM
      1  N         30.2130   20.6120   93.2140 N.3     9  ASP9       -0.1239
      2  CA        29.8160   21.8610   93.8450 C.3     9  ASP9        0.1674
      3  C         29.1360   21.5410   95.1600 C.2     9  ASP9        0.2266
      4  O         28.2550   20.6860   95.2170 O.2     9  ASP9       -0.2867
      5  CB        28.8610   22.6460   92.9510 C.3     9  ASP9        0.1410
      6  CG        29.5420   23.1880   91.7180 C.2     9  ASP9        0.3668
      7  OD1       30.5720   23.8740   91.8670 O.co2   9  ASP9       -0.2456
      8  OD2       29.0510   22.9250   90.6010 O.co2   9  ASP9       -0.2456
      9  N         35.0440   22.5620   99.0620 N.3    13  LYS13      -0.1245
     10  CA        36.3890   22.8850   98.5900 C.3    13  LYS13       0.1561
     11  C         36.9520   24.2180   99.0690 C.2    13  LYS13       0.2260
     12  O         38.1000   24.2880   99.5040 O.2    13  LYS13      -0.2867
     13  CB        36.4400   22.8550   97.0570 C.3    13  LYS13       0.0271
     14  CG        36.0660   21.5160   96.4520 C.3    13  LYS13       0.0035
     15  CD        36.3150   21.4710   94.9630 C.3    13  LYS13       0.0206
     16  CE        35.5300   22.5330   94.2150 C.3    13  LYS13       0.1093
     17  NZ        34.0680   22.3570   94.3480 N.3    13  LYS13      -0.1314
     18  N         39.1860   28.7880   90.3890 N.3    36  PHE36      -0.1228
     19  CA        38.6730   28.7170   89.0270 C.3    36  PHE36       0.1721
     20  C         37.2180   28.2680   89.0900 C.2    36  PHE36       0.2437
     21  O         36.8560   27.4430   89.9290 O.2    36  PHE36      -0.2733
     22  CB        39.4890   27.7180   88.2010 C.3    36  PHE36       0.0547
     23  CG        40.8840   28.1770   87.9000 C.ar   36  PHE36      -0.0202
     24  CD1       41.1040   29.2440   87.0320 C.ar   36  PHE36      -0.0042
     25  CD2       41.9760   27.5700   88.5040 C.ar   36  PHE36      -0.0042
     26  CE1       42.3870   29.7000   86.7740 C.ar   36  PHE36      -0.0003
     27  CE2       43.2630   28.0160   88.2530 C.ar   36  PHE36      -0.0003
     28  CZ        43.4710   29.0890   87.3840 C.ar   36  PHE36      -0.0000
     29  N         36.3600   28.7990   88.2040 N.am   37  PRO37      -0.2729
     30  CA        36.6520   29.7820   87.1540 C.3    37  PRO37       0.1401
     31  C         36.9710   31.1570   87.7350 C.2    37  PRO37       0.2269
     32  O         36.4670   31.5210   88.7940 O.2    37  PRO37      -0.2865
     33  CB        35.3620   29.8040   86.3250 C.3    37  PRO37       0.0296
     34  CG        34.7170   28.4780   86.6250 C.3    37  PRO37       0.0237
     35  CD        34.9640   28.3470   88.1020 C.3    37  PRO37       0.0939
     36  N         35.9000   34.1390   87.6680 N.3    39  TYR39      -0.1241
     37  CA        34.8200   35.0640   87.3530 C.3    39  TYR39       0.1605
     38  C         35.2380   36.5030   87.6210 C.2    39  TYR39       0.2264
     39  O         35.8260   36.8090   88.6600 O.2    39  TYR39      -0.2867
     40  CB        33.5830   34.7370   88.1820 C.3    39  TYR39       0.0534
     41  CG        33.0740   33.3300   87.9880 C.ar   39  TYR39      -0.0201
     42  CD1       33.0510   32.4270   89.0470 C.ar   39  TYR39      -0.0009
     43  CD2       32.5770   32.9110   86.7530 C.ar   39  TYR39      -0.0009
     44  CE1       32.5380   31.1360   88.8870 C.ar   39  TYR39       0.0417
     45  CE2       32.0640   31.6260   86.5830 C.ar   39  TYR39       0.0417
     46  CZ        32.0460   30.7450   87.6540 C.ar   39  TYR39       0.1957
     47  OH        31.5400   29.4770   87.4910 O.3    39  TYR39      -0.2866
     48  N         25.9570   29.2770   81.1250 N.3    52  LEU52      -0.1245
     49  CA        25.3230   28.3340   82.0350 C.3    52  LEU52       0.1561
     50  C         24.0410   28.8930   82.6310 C.2    52  LEU52       0.2260
     51  O         23.2600   28.1550   83.2210 O.2    52  LEU52      -0.2867
     52  CB        26.2910   27.9220   83.1440 C.3    52  LEU52       0.0270
     53  CG        27.3910   26.9740   82.6580 C.3    52  LEU52       0.0019
     54  CD1       28.2380   26.5140   83.8310 C.3    52  LEU52       0.0001
     55  CD2       26.7520   25.7740   81.9570 C.3    52  LEU52       0.0001
     56  N         36.4660   27.1030   79.8510 N.3    70  PHE70      -0.1241
     57  CA        37.1290   26.9800   81.1390 C.3    70  PHE70       0.1605
     58  C         38.6310   26.7780   80.9560 C.2    70  PHE70       0.2264
     59  O         39.4230   27.1790   81.8110 O.2    70  PHE70      -0.2867
     60  CB        36.5330   25.8200   81.9510 C.3    70  PHE70       0.0534
     61  CG        35.1060   26.0370   82.3530 C.ar   70  PHE70      -0.0203
     62  CD1       34.1000   25.2080   81.8690 C.ar   70  PHE70      -0.0042
     63  CD2       34.7580   27.0820   83.2010 C.ar   70  PHE70      -0.0042
     64  CE1       32.7710   25.4190   82.2210 C.ar   70  PHE70      -0.0003
     65  CE2       33.4310   27.3000   83.5600 C.ar   70  PHE70      -0.0003
     66  CZ        32.4340   26.4600   83.0640 C.ar   70  PHE70      -0.0000
     67  N         41.8810   29.1990   82.2120 N.3    74  ARG74      -0.1245
     68  CA        43.0950   28.7830   82.8920 C.3    74  ARG74       0.1563
     69  C         44.3100   29.2090   82.0730 C.2    74  ARG74       0.2260
     70  O         45.3320   29.6160   82.6390 O.2    74  ARG74      -0.2867
     71  CB        43.0990   27.2570   83.1420 C.3    74  ARG74       0.0307
     72  CG        42.3870   26.8370   84.4390 C.3    74  ARG74       0.0489
     73  CD        42.4800   25.3240   84.7200 C.3    74  ARG74       0.2205
     74  NE        41.6070   24.5380   83.8490 N.pl3  74  ARG74      -0.0865
     75  CZ        40.3020   24.3720   84.0380 C.cat  74  ARG74       0.5346
     76  NH1       39.6900   24.9270   85.0810 N.pl3  74  ARG74       0.1354
     77  NH2       39.6020   23.6560   83.1720 N.pl3  74  ARG74       0.1354
     78  N         39.7930   24.1850   92.4560 N.3    95  ARG95      -0.1245
     79  CA        39.3610   23.6500   91.1630 C.3    95  ARG95       0.1563
     80  C         40.5130   23.8700   90.1830 C.2    95  ARG95       0.2260
     81  O         41.1840   24.9080   90.2180 O.2    95  ARG95      -0.2867
     82  CB        38.1060   24.3450   90.6170 C.3    95  ARG95       0.0307
     83  CG        36.7810   23.8000   91.1120 C.3    95  ARG95       0.0489
     84  CD        35.6670   24.2640   90.1940 C.3    95  ARG95       0.2205
     85  NE        34.3370   23.8590   90.6410 N.pl3  95  ARG95      -0.0865
     86  CZ        33.9280   22.5960   90.7450 C.cat  95  ARG95       0.5346
     87  NH1       32.6960   22.3310   91.1650 N.pl3  95  ARG95       0.1354
     88  NH2       34.7440   21.6060   90.4230 N.pl3  95  ARG95       0.1354
     89  N         38.6530   19.4190   86.9700 N.3    99  SER99      -0.1202
     90  CA        37.2340   19.7910   87.0190 C.3    99  SER99       0.2020
     91  C         36.6280   19.7160   85.6130 C.2    99  SER99       0.2618
     92  O         35.4450   19.4040   85.4380 O.2    99  SER99      -0.2717
     93  CB        37.0520   21.2150   87.5650 C.3    99  SER99       0.2103
     94  OG        37.4770   21.3360   88.9100 O.3    99  SER99      -0.2182
     95  N         37.4520   20.0160   84.6140 N.am  100  ASN100     -0.1974
     96  CA        37.0220   19.9900   83.2210 C.3   100  ASN100      0.1688
     97  C         36.9240   18.5470   82.7520 C.2   100  ASN100      0.2292
     98  O         36.0040   18.1880   82.0190 O.2   100  ASN100     -0.2864
     99  CB        38.0170   20.7540   82.3530 C.3   100  ASN100      0.1181
    100  CG        37.3510   21.7940   81.4820 C.2   100  ASN100      0.2629
    101  OD1       36.2140   22.1950   81.7250 O.2   100  ASN100     -0.2716
    102  ND2       38.0670   22.2540   80.4750 N.am  100  ASN100     -0.0877
    103  N         33.6340   16.9960   84.7850 N.3   103  TYR103     -0.1227
    104  CA        32.3320   17.4830   84.3520 C.3   103  TYR103      0.1736
    105  C         32.0470   17.2190   82.8740 C.2   103  TYR103      0.2596
    106  O         30.8950   16.9920   82.4960 O.2   103  TYR103     -0.2718
    107  CB        32.1890   18.9810   84.6390 C.3   103  TYR103      0.0548
    108  CG        31.8860   19.3100   86.0860 C.ar  103  TYR103     -0.0200
    109  CD1       32.9120   19.5140   87.0130 C.ar  103  TYR103     -0.0009
    110  CD2       30.5670   19.4130   86.5290 C.ar  103  TYR103     -0.0009
    111  CE1       32.6300   19.8140   88.3450 C.ar  103  TYR103      0.0417
    112  CE2       30.2690   19.7090   87.8610 C.ar  103  TYR103      0.0417
    113  CZ        31.3030   19.9070   88.7600 C.ar  103  TYR103      0.1957
    114  OH        31.0090   20.1690   90.0710 O.3   103  TYR103     -0.2866
    115  N         33.0820   17.2330   82.0380 N.am  104  SER104     -0.1952
    116  CA        32.8810   17.0030   80.6100 C.3   104  SER104      0.1924
    117  C         32.4650   15.5620   80.3450 C.2   104  SER104      0.2314
    118  O         31.5320   15.3110   79.5840 O.2   104  SER104     -0.2863
    119  CB        34.1500   17.3340   79.8210 C.3   104  SER104      0.2116
    120  OG        34.3420   18.7360   79.7340 O.3   104  SER104     -0.2180
    121  N         22.2050   20.4160   89.4150 N.3   150  ASP150     -0.1239
    122  CA        21.7640   19.2610   88.6350 C.3   150  ASP150      0.1674
    123  C         22.2620   17.9510   89.2470 C.2   150  ASP150      0.2266
    124  O         23.3340   17.4480   88.8970 O.2   150  ASP150     -0.2867
    125  CB        22.2670   19.3700   87.1970 C.3   150  ASP150      0.1410
    126  CG        21.7340   18.2640   86.3110 C.2   150  ASP150      0.3668
    127  OD1       21.0990   17.3290   86.8420 O.co2 150  ASP150     -0.2456
    128  OD2       21.9540   18.3250   85.0850 O.co2 150  ASP150     -0.2456
    129  N         23.8530   15.0680   86.8870 N.3   153  LEU153     -0.1231
    130  CA        25.1340   15.4160   86.3080 C.3   153  LEU153      0.1693
    131  C         26.1130   15.4490   87.4710 C.2   153  LEU153      0.2591
    132  O         27.2160   14.9100   87.3810 O.2   153  LEU153     -0.2718
    133  CB        25.0800   16.7980   85.6290 C.3   153  LEU153      0.0284
    134  CG        26.4410   17.4190   85.2800 C.3   153  LEU153      0.0019
    135  CD1       27.1720   16.5090   84.3140 C.3   153  LEU153      0.0001
    136  CD2       26.2540   18.8180   84.6650 C.3   153  LEU153      0.0001
    137  N         25.7010   16.0790   88.5650 N.am  154  GLN154     -0.1979
    138  CA        26.5570   16.1860   89.7480 C.3   154  GLN154      0.1601
    139  C         26.9690   14.7980   90.2510 C.2   154  GLN154      0.2287
    140  O         28.1440   14.5520   90.5450 O.2   154  GLN154     -0.2864
    141  CB        25.8410   16.9460   90.8730 C.3   154  GLN154      0.0394
    142  CG        25.5620   18.4290   90.6000 C.3   154  GLN154      0.0908
    143  CD        26.8130   19.2520   90.3420 C.2   154  GLN154      0.2608
    144  OE1       27.8870   18.9700   90.8800 O.2   154  GLN154     -0.2717
    145  NE2       26.6740   20.2940   89.5240 N.am  154  GLN154     -0.0878
@<TRIPOS>BOND
     1   118   117    2
     2   120   119    1
     3   119   116    1
     4    56    57    1
     5   117   116    1
     6   102   100   am
     7   116   115    1
     8    58    57    1
     9    58    59    2
    10    48    49    1
    11    57    60    1
    12   100   101    2
    13   100    99    1
    14    62    64   ar
    15    62    61   ar
    16    60    61    1
    17    55    53    1
    18    98    97    2
    19    49    50    1
    20    49    52    1
    21   115   105   am
    22    69    70    2
    23    69    68    1
    24    67    68    1
    25    64    66   ar
    26    61    63   ar
    27    99    96    1
    28   106   105    2
    29    50    51    2
    30    53    52    1
    31    53    54    1
    32    97    96    1
    33   105   104    1
    34    68    71    1
    35    66    65   ar
    36    71    72    1
    37    77    75    1
    38    63    65   ar
    39    96    95    1
    40    74    75    2
    41    74    73    1
    42    75    76    1
    43   135   134    1
    44   104   107    1
    45   104   103    1
    46    72    73    1
    47    95    91   am
    48   107   108    1
    49   136   134    1
    50   128   126   ar
    51   134   133    1
    52    92    91    2
    53    91    90    1
    54   133   130    1
    55   108   110   ar
    56   108   109   ar
    57   130   129    1
    58   130   131    1
    59   126   127   ar
    60   126   125    1
    61    33    34    1
    62    33    30    1
    63   110   112   ar
    64    45    43   ar
    65    45    46   ar
    66    34    35    1
    67    43    41   ar
    68    26    24   ar
    69    26    28   ar
    70    89    90    1
    71   109   111   ar
    72    90    93    1
    73    24    23   ar
    74    30    31    1
    75    30    29    1
    76   125   122    1
    77    37    38    1
    78    37    36    1
    79    37    40    1
    80   132   131    2
    81    28    27   ar
    82   131   137   am
    83    47    46    1
    84    93    94    1
    85    38    39    2
    86    46    44   ar
    87    31    32    2
    88   112   113   ar
    89    23    22    1
    90    23    25   ar
    91    41    40    1
    92    41    42   ar
    93    35    29    1
    94    22    19    1
    95    29    20   am
    96    27    25   ar
    97   111   113   ar
    98   137   138    1
    99   122   123    1
   100   122   121    1
   101   113   114    1
   102    44    42   ar
   103   124   123    2
   104    19    20    1
   105    19    18    1
   106    20    21    2
   107   145   143   am
   108   138   139    1
   109   138   141    1
   110    80    81    2
   111    80    79    1
   112    84    85    1
   113    84    83    1
   114   139   140    2
   115   143   142    1
   116   143   144    2
   117    88    86    1
   118   142   141    1
   119     8     6   ar
   120    82    83    1
   121    82    79    1
   122    85    86    2
   123    86    87    1
   124    79    78    1
   125     6     7   ar
   126     6     5    1
   127     5     2    1
   128     1     2    1
   129     2     3    1
   130    16    17    1
   131    16    15    1
   132    15    14    1
   133     3     4    2
   134    14    13    1
   135    13    10    1
   136    10     9    1
   137    10    11    1
   138    11    12    2
