@<TRIPOS>MOLECULE
tmp/1w2kA00.pdb
 179 177 0 0 0
SMALL
GASTEIGER

@<TRIPOS>ATOM
      1  N         32.0020   14.3110    4.2430 N.3    41  HIS41      -0.1241
      2  CA        32.4440   13.0200    3.7260 C.3    41  HIS41       0.1621
      3  C         31.3190   12.2360    3.0560 C.2    41  HIS41       0.2264
      4  O         31.5600   11.2170    2.4120 O.2    41  HIS41      -0.2867
      5  CB        33.0580   12.1660    4.8350 C.3    41  HIS41       0.0745
      6  CG        32.0510   11.4910    5.7140 C.ar   41  HIS41       0.0817
      7  ND1       31.4280   12.1300    6.7630 N.ar   41  HIS41      -0.2268
      8  CD2       31.5730   10.2240    5.7050 C.ar   41  HIS41       0.1154
      9  CE1       30.6110   11.2840    7.3660 C.ar   41  HIS41       0.1986
     10  NE2       30.6810   10.1200    6.7430 N.ar   41  HIS41      -0.2212
     11  N         31.9670   12.3300   -0.6670 N.3    44  ASP44      -0.1225
     12  CA        33.3080   11.9270   -1.0740 C.3    44  ASP44       0.1805
     13  C         33.3780   11.1720   -2.3950 C.2    44  ASP44       0.2597
     14  O         34.2710   11.4110   -3.2060 O.2    44  ASP44      -0.2718
     15  CB        33.9190   11.0440    0.0090 C.3    44  ASP44       0.1424
     16  CG        34.7470   11.8170    0.9900 C.2    44  ASP44       0.3668
     17  OD1       34.4180   12.9950    1.2490 O.co2  44  ASP44      -0.2456
     18  OD2       35.7240   11.2360    1.5120 O.co2  44  ASP44      -0.2456
     19  N         32.4490   10.2510   -2.6130 N.am   45  LYS45      -0.1979
     20  CA        32.4810    9.4540   -3.8310 C.3    45  LYS45       0.1596
     21  C         31.3080    9.6690   -4.8040 C.2    45  LYS45       0.2287
     22  O         31.0700    8.8510   -5.6950 O.2    45  LYS45      -0.2864
     23  CB        32.6000    7.9790   -3.4430 C.3    45  LYS45       0.0298
     24  CG        33.7470    7.7100   -2.4690 C.3    45  LYS45       0.0038
     25  CD        33.6250    6.3400   -1.8040 C.3    45  LYS45       0.0206
     26  CE        34.6510    6.1500   -0.6940 C.3    45  LYS45       0.1093
     27  NZ        34.5200    4.8180   -0.0390 N.3    45  LYS45      -0.1314
     28  N         38.1470   11.8250    2.4010 N.3    85  GLY85      -0.1210
     29  CA        38.8480   10.7140    3.0030 C.3    85  GLY85       0.1956
     30  C         39.3550   11.0220    4.3940 C.2    85  GLY85       0.2613
     31  O         39.7390   10.1150    5.1160 O.2    85  GLY85      -0.2717
     32  N         39.3540   12.2930    4.7830 N.am   86  THR86      -0.1938
     33  CA        39.8220   12.6790    6.1130 C.3    86  THR86       0.2028
     34  C         38.6470   13.0840    7.0140 C.2    86  THR86       0.2642
     35  O         37.4940   13.0650    6.5770 O.2    86  THR86      -0.2714
     36  CB        40.8190   13.8280    6.0130 C.3    86  THR86       0.1808
     37  OG1       40.1340   15.0210    5.6300 O.3    86  THR86      -0.2208
     38  CG2       41.8590   13.5170    4.9560 C.3    86  THR86       0.0379
     39  N         38.9280   13.4690    8.2580 N.am   87  THR87      -0.1950
     40  CA        37.8500   13.8190    9.1870 C.3    87  THR87       0.1897
     41  C         37.5360   15.2880    9.5210 C.2    87  THR87       0.2313
     42  O         36.3680   15.6540    9.6470 O.2    87  THR87      -0.2863
     43  CB        38.0310   13.0660   10.5280 C.3    87  THR87       0.1794
     44  OG1       39.2990   13.4000   11.1010 O.3    87  THR87      -0.2208
     45  CG2       37.9680   11.5740   10.3080 C.3    87  THR87       0.0378
     46  N         34.0920   18.3310    8.8030 N.3    90  ASP90      -0.1239
     47  CA        33.1210   17.4460    8.1780 C.3    90  ASP90       0.1674
     48  C         31.7350   18.0800    8.1950 C.2    90  ASP90       0.2266
     49  O         30.8610   17.6570    8.9410 O.2    90  ASP90      -0.2867
     50  CB        33.1010   16.1040    8.9130 C.3    90  ASP90       0.1410
     51  CG        32.4380   15.0120    8.1100 C.2    90  ASP90       0.3668
     52  OD1       32.1330   15.2490    6.9250 O.co2  90  ASP90      -0.2456
     53  OD2       32.2270   13.9080    8.6500 O.co2  90  ASP90      -0.2456
     54  N         42.5860    9.5820   13.5020 N.3   166  PRO166     -0.2116
     55  CA        42.4900   11.0420   13.5260 C.3   166  PRO166      0.1372
     56  C         42.4870   11.5950   14.9420 C.2   166  PRO166      0.2244
     57  O         42.1790   10.8770   15.8960 O.2   166  PRO166     -0.2868
     58  CB        41.1700   11.3080   12.8110 C.3   166  PRO166      0.0268
     59  CG        41.0530   10.1470   11.8800 C.3   166  PRO166      0.0207
     60  CD        41.4630    9.0000   12.7540 C.3   166  PRO166      0.0892
     61  N         25.5600    4.2710   20.5680 N.3   183  ASP183     -0.1225
     62  CA        26.3630    5.1270   19.7050 C.3   183  ASP183      0.1805
     63  C         25.6720    5.2570   18.3480 C.2   183  ASP183      0.2598
     64  O         24.8520    4.4170   17.9710 O.2   183  ASP183     -0.2718
     65  CB        27.7450    4.5070   19.4870 C.3   183  ASP183      0.1424
     66  CG        28.6300    5.3550   18.5990 C.2   183  ASP183      0.3668
     67  OD1       29.5770    4.8010   17.9940 O.co2 183  ASP183     -0.2456
     68  OD2       28.3830    6.5780   18.5150 O.co2 183  ASP183     -0.2456
     69  N         25.9880    6.3180   17.6160 N.am  184  SER184     -0.1938
     70  CA        25.4140    6.4860   16.2940 C.3   184  SER184      0.2055
     71  C         26.3000    5.6010   15.4320 C.2   184  SER184      0.2643
     72  O         27.2600    5.0100   15.9370 O.2   184  SER184     -0.2714
     73  CB        25.4990    7.9400   15.8450 C.3   184  SER184      0.2130
     74  OG        26.8180    8.4250   15.9830 O.3   184  SER184     -0.2179
     75  N         26.0080    5.5030   14.1440 N.am  185  CYS185     -0.1953
     76  CA        26.8160    4.6390   13.3060 C.3   185  CYS185      0.1843
     77  C         26.9060    5.1440   11.8750 C.2   185  CYS185      0.2625
     78  O         26.0530    5.9030   11.4260 O.2   185  CYS185     -0.2714
     79  CB        26.2240    3.2380   13.3690 C.3   185  CYS185      0.0997
     80  SG        27.2660    1.8760   12.7860 S.3   185  CYS185     -0.0797
     81  N         27.9590    4.7230   11.1790 N.am  186  LYS186     -0.1977
     82  CA        28.2350    5.1070    9.7910 C.3   186  LYS186      0.1596
     83  C         27.0460    5.5400    8.9490 C.2   186  LYS186      0.2287
     84  O         27.0080    6.6620    8.4500 O.2   186  LYS186     -0.2864
     85  CB        28.9360    3.9640    9.0680 C.3   186  LYS186      0.0298
     86  CG        28.9740    4.1460    7.5580 C.3   186  LYS186      0.0038
     87  CD        29.6200    2.9450    6.8850 C.3   186  LYS186      0.0206
     88  CE        29.7380    3.1260    5.3770 C.3   186  LYS186      0.1093
     89  NZ        30.4660    1.9570    4.7860 N.3   186  LYS186     -0.1314
     90  N         25.7890    8.9980    9.2540 N.3   189  SER189     -0.1217
     91  CA        26.5990   10.1610    8.9370 C.3   189  SER189      0.1889
     92  C         25.7550   11.3100    8.4080 C.2   189  SER189      0.2288
     93  O         24.7970   11.0960    7.6580 O.2   189  SER189     -0.2866
     94  CB        27.6650    9.7950    7.9120 C.3   189  SER189      0.2089
     95  OG        28.5260    8.7930    8.4190 O.3   189  SER189     -0.2183
     96  N         26.5490   13.9380   12.8680 N.3   207  VAL207     -0.1231
     97  CA        27.1400   12.6040   12.9640 C.3   207  VAL207      0.1692
     98  C         28.2990   12.5410   11.9690 C.2   207  VAL207      0.2593
     99  O         28.0940   12.4170   10.7650 O.2   207  VAL207     -0.2718
    100  CB        26.1010   11.5100   12.6330 C.3   207  VAL207      0.0266
    101  CG1       26.6930   10.1370   12.8830 C.3   207  VAL207      0.0020
    102  CG2       24.8580   11.7030   13.4840 C.3   207  VAL207      0.0020
    103  N         29.5180   12.6140   12.4920 N.am  208  SER208     -0.1938
    104  CA        30.7180   12.6290   11.6650 C.3   208  SER208      0.2055
    105  C         31.4990   11.3130   11.5220 C.2   208  SER208      0.2643
    106  O         31.5280   10.7210   10.4390 O.2   208  SER208     -0.2714
    107  CB        31.6520   13.7370   12.1710 C.3   208  SER208      0.2130
    108  OG        32.7590   13.9270   11.3150 O.3   208  SER208     -0.2179
    109  N         32.1440   10.8540   12.5920 N.am  209  TRP209     -0.1959
    110  CA        32.9230    9.6190   12.5010 C.3   209  TRP209      0.1771
    111  C         33.1760    8.9210   13.8360 C.2   209  TRP209      0.2620
    112  O         32.6450    9.3090   14.8710 O.2   209  TRP209     -0.2715
    113  CB        34.2760    9.9020   11.8340 C.3   209  TRP209      0.0590
    114  CG        35.1670   10.8290   12.6430 C.ar  209  TRP209      0.0006
    115  CD1       35.0530   12.1880   12.7620 C.ar  209  TRP209      0.0946
    116  CD2       36.2550   10.4440   13.4980 C.ar  209  TRP209      0.0152
    117  NE1       35.9960   12.6650   13.6370 N.ar  209  TRP209     -0.2442
    118  CE2       36.7460   11.6180   14.1040 C.ar  209  TRP209      0.0810
    119  CE3       36.8580    9.2180   13.8120 C.ar  209  TRP209      0.0012
    120  CZ2       37.8100   11.6060   15.0050 C.ar  209  TRP209      0.0191
    121  CZ3       37.9150    9.2090   14.7080 C.ar  209  TRP209      0.0001
    122  CH2       38.3790   10.3940   15.2930 C.ar  209  TRP209      0.0015
    123  N         34.0060    7.8860   13.7910 N.am  210  GLY210     -0.1940
    124  CA        34.3330    7.1480   14.9890 C.3   210  GLY210      0.2014
    125  C         35.1360    5.8950   14.7030 C.2   210  GLY210      0.2639
    126  O         35.4580    5.5880   13.5480 O.2   210  GLY210     -0.2714
    127  N         35.4740    5.1870   15.7780 N.am  211  GLN211     -0.1963
    128  CA        36.2230    3.9370   15.7160 C.3   211  GLN211      0.1733
    129  C         35.1760    2.8540   15.6880 C.2   211  GLN211      0.2617
    130  O         34.8450    2.2800   16.7210 O.2   211  GLN211     -0.2715
    131  CB        37.0960    3.7660   16.9590 C.3   211  GLN211      0.0408
    132  CG        38.5810    3.8640   16.6730 C.3   211  GLN211      0.0908
    133  CD        39.0980    2.6690   15.8990 C.2   211  GLN211      0.2608
    134  OE1       39.5280    1.6770   16.4870 O.2   211  GLN211     -0.2717
    135  NE2       39.0440    2.7490   14.5710 N.am  211  GLN211     -0.0878
    136  N         34.6560    2.5870   14.4980 N.am  212  GLY212     -0.1940
    137  CA        33.6230    1.5880   14.3630 C.3   212  GLY212      0.2014
    138  C         32.3580    2.2010   14.9170 C.2   212  GLY212      0.2639
    139  O         32.1690    3.4090   14.8210 O.2   212  GLY212     -0.2714
    140  N         31.4960    1.3760   15.4970 N.am  213  CYS213     -0.1967
    141  CA        30.2490    1.8490   16.0750 C.3   213  CYS213      0.1712
    142  C         30.0950    1.2610   17.4610 C.2   213  CYS213      0.2296
    143  O         30.1450    0.0450   17.6330 O.2   213  CYS213     -0.2864
    144  CB        29.0730    1.4360   15.1960 C.3   213  CYS213      0.0983
    145  SG        29.1010    2.2540   13.5700 S.3   213  CYS213     -0.0798
    146  N         34.1690    6.8470   21.8770 N.3   219  PHE219     -0.1227
    147  CA        32.9740    7.6700   21.8400 C.3   219  PHE219      0.1736
    148  C         32.6530    8.0500   20.3920 C.2   219  PHE219      0.2596
    149  O         33.4210    7.7620   19.4860 O.2   219  PHE219     -0.2718
    150  CB        33.1930    8.9400   22.6610 C.3   219  PHE219      0.0547
    151  CG        33.4420    8.6870   24.1160 C.ar  219  PHE219     -0.0202
    152  CD1       34.7170    8.4060   24.5800 C.ar  219  PHE219     -0.0042
    153  CD2       32.3930    8.7180   25.0250 C.ar  219  PHE219     -0.0042
    154  CE1       34.9430    8.1600   25.9290 C.ar  219  PHE219     -0.0003
    155  CE2       32.6090    8.4740   26.3660 C.ar  219  PHE219     -0.0003
    156  CZ        33.8870    8.1940   26.8210 C.ar  219  PHE219     -0.0000
    157  N         31.5110    8.6830   20.1680 N.am  220  GLY220     -0.1942
    158  CA        31.1840    9.0990   18.8200 C.3   220  GLY220      0.2014
    159  C         31.7610   10.4840   18.6090 C.2   220  GLY220      0.2639
    160  O         31.8740   11.2610   19.5560 O.2   220  GLY220     -0.2714
    161  N         32.1480   10.8070   17.3840 N.am  221  VAL221     -0.1963
    162  CA        32.6980   12.1290   17.1230 C.3   221  VAL221      0.1727
    163  C         31.7510   12.8750   16.2060 C.2   221  VAL221      0.2616
    164  O         31.3940   12.3820   15.1380 O.2   221  VAL221     -0.2715
    165  CB        34.0660   12.0560   16.4570 C.3   221  VAL221      0.0290
    166  CG1       34.6380   13.4440   16.3480 C.3   221  VAL221      0.0023
    167  CG2       34.9830   11.1540   17.2510 C.3   221  VAL221      0.0023
    168  N         31.3470   14.0680   16.6270 N.am  222  TYR222     -0.1974
    169  CA        30.4090   14.8730   15.8560 C.3   222  TYR222      0.1639
    170  C         31.0110   16.2140   15.4520 C.2   222  TYR222      0.2290
    171  O         31.8110   16.7890   16.1830 O.2   222  TYR222     -0.2864
    172  CB        29.1360   15.1050   16.6800 C.3   222  TYR222      0.0560
    173  CG        28.4820   13.8310   17.1720 C.ar  222  TYR222     -0.0198
    174  CD1       28.9730   13.1530   18.2790 C.ar  222  TYR222     -0.0009
    175  CD2       27.4150   13.2740   16.4890 C.ar  222  TYR222     -0.0009
    176  CE1       28.4230   11.9520   18.6850 C.ar  222  TYR222      0.0417
    177  CE2       26.8630   12.0800   16.8850 C.ar  222  TYR222      0.0417
    178  CZ        27.3680   11.4230   17.9740 C.ar  222  TYR222      0.1957
    179  OH        26.8280   10.2170   18.3370 O.3   222  TYR222     -0.2866
@<TRIPOS>BOND
     1    22    21    2
     2    21    20    1
     3    20    23    1
     4    20    19    1
     5    23    24    1
     6    14    13    2
     7    19    13   am
     8    24    25    1
     9    13    12    1
    10    25    26    1
    11    12    11    1
    12    12    15    1
    13    26    27    1
    14    15    16    1
    15    16    17   ar
    16    16    18   ar
    17    28    29    1
    18     4     3    2
    19    29    30    1
    20     3     2    1
    21     2     1    1
    22     2     5    1
    23    30    32   am
    24    30    31    2
    25    32    33    1
    26    89    88    1
    27     5     6    1
    28    38    36    1
    29    88    87    1
    30    37    36    1
    31     8     6   ar
    32     8    10   ar
    33     6     7   ar
    34    36    33    1
    35    33    34    1
    36    35    34    2
    37    10     9   ar
    38     7     9   ar
    39    87    86    1
    40    52    51   ar
    41    34    39   am
    42    86    85    1
    43    93    92    2
    44    94    95    1
    45    94    91    1
    46    51    53   ar
    47    51    50    1
    48    47    48    1
    49    47    46    1
    50    47    50    1
    51    48    49    2
    52    39    40    1
    53    92    91    1
    54    84    83    2
    55    91    90    1
    56    83    82    1
    57    85    82    1
    58    40    41    1
    59    40    43    1
    60    41    42    2
    61    82    81    1
    62    45    43    1
    63   106   105    2
    64    43    44    1
    65    99    98    2
    66    81    77   am
    67   108   107    1
    68    78    77    2
    69   105   104    1
    70   105   109   am
    71   104   107    1
    72   104   103    1
    73   113   110    1
    74   113   114    1
    75    77    76    1
    76    59    60    1
    77    59    58    1
    78    98   103   am
    79    98    97    1
    80   110   109    1
    81   110   111    1
    82   100   101    1
    83   100    97    1
    84   100   102    1
    85   114   115   ar
    86   114   116   ar
    87    60    54    1
    88   115   117   ar
    89    80    79    1
    90    80   145    1
    91    58    55    1
    92    96    97    1
    93    76    79    1
    94    76    75    1
    95   116   119   ar
    96   116   118   ar
    97    54    55    1
    98    55    56    1
    99   126   125    2
   100   145   144    1
   101   117   118   ar
   102   123   111   am
   103   123   124    1
   104   119   121   ar
   105   111   112    2
   106   118   120   ar
   107    75    71   am
   108   137   136    1
   109   137   138    1
   110   136   129   am
   111   135   133   am
   112   125   124    1
   113   125   127   am
   114   121   122   ar
   115   139   138    2
   116   138   140   am
   117    56    57    2
   118   120   122   ar
   119   164   163    2
   120   144   141    1
   121    71    72    2
   122    71    70    1
   123   170   169    1
   124   170   171    2
   125   140   141    1
   126   129   128    1
   127   129   130    2
   128   128   127    1
   129   128   131    1
   130    73    74    1
   131    73    70    1
   132   169   168    1
   133   169   172    1
   134   133   134    2
   135   133   132    1
   136   141   142    1
   137   163   168   am
   138   163   162    1
   139    70    69    1
   140   166   165    1
   141   165   162    1
   142   165   167    1
   143   175   177   ar
   144   175   173   ar
   145   132   131    1
   146   172   173    1
   147   177   178   ar
   148   162   161    1
   149   173   174   ar
   150   161   159   am
   151   142   143    2
   152    69    63   am
   153    64    63    2
   154   178   179    1
   155   178   176   ar
   156    67    66   ar
   157   174   176   ar
   158    63    62    1
   159    68    66   ar
   160    66    65    1
   161   159   158    1
   162   159   160    2
   163   158   157    1
   164   149   148    2
   165    65    62    1
   166    62    61    1
   167   157   148   am
   168   148   147    1
   169   147   146    1
   170   147   150    1
   171   150   151    1
   172   151   152   ar
   173   151   153   ar
   174   152   154   ar
   175   153   155   ar
   176   154   156   ar
   177   155   156   ar
