@<TRIPOS>MOLECULE
tmp/1w2oA00.pdb
 116 107 0 0 0
SMALL
GASTEIGER

@<TRIPOS>ATOM
      1  N         71.6100   18.3690   30.6600 N.3   146  ARG146     -0.1245
      2  CA        72.6940   17.5270   31.1790 C.3   146  ARG146      0.1563
      3  C         73.9790   17.8520   30.4150 C.2   146  ARG146      0.2260
      4  O         74.0450   17.7090   29.1940 O.2   146  ARG146     -0.2867
      5  CB        72.3810   16.0210   31.0290 C.3   146  ARG146      0.0307
      6  CG        71.3580   15.4410   32.0600 C.3   146  ARG146      0.0489
      7  CD        71.5650   13.9330   32.4650 C.3   146  ARG146      0.2205
      8  NE        71.3480   13.6460   33.8990 N.pl3 146  ARG146     -0.0865
      9  CZ        71.6530   12.4830   34.5080 C.cat 146  ARG146      0.5346
     10  NH1       72.1930   11.4600   33.8260 N.pl3 146  ARG146      0.1354
     11  NH2       71.4050   12.3300   35.8130 N.pl3 146  ARG146      0.1354
     12  N         78.0240   16.8400   30.1200 N.3   148  ARG148     -0.1245
     13  CA        79.0000   15.7970   30.4500 C.3   148  ARG148      0.1563
     14  C         80.4020   16.2860   30.0770 C.2   148  ARG148      0.2260
     15  O         80.5860   16.9470   29.0500 O.2   148  ARG148     -0.2867
     16  CB        78.7010   14.4680   29.7120 C.3   148  ARG148      0.0307
     17  CG        77.3760   13.7730   30.0610 C.3   148  ARG148      0.0489
     18  CD        77.4460   12.2190   30.0900 C.3   148  ARG148      0.2205
     19  NE        77.2980   11.6660   31.4540 N.pl3 148  ARG148     -0.0865
     20  CZ        76.1490   11.2700   32.0100 C.cat 148  ARG148      0.5346
     21  NH1       75.0010   11.3420   31.3480 N.pl3 148  ARG148      0.1354
     22  NH2       76.1480   10.7970   33.2470 N.pl3 148  ARG148      0.1354
     23  N         76.4970    0.0090   24.3720 N.3   157  MET157     -0.1245
     24  CA        75.0300    0.1230   24.5050 C.3   157  MET157      0.1570
     25  C         74.3210    0.1680   23.1340 C.2   157  MET157      0.2261
     26  O         74.9520    0.3510   22.0990 O.2   157  MET157     -0.2867
     27  CB        74.6470    1.3950   25.2910 C.3   157  MET157      0.0387
     28  CG        75.2360    1.5200   26.6840 C.3   157  MET157      0.0595
     29  SD        74.7100    0.2260   27.8310 S.3   157  MET157     -0.1393
     30  CE        72.8660    0.5660   28.0060 C.3   157  MET157      0.0692
     31  N         69.0390    4.4470   20.8860 N.3   160  HIS160     -0.1241
     32  CA        67.7450    4.8300   21.4280 C.3   160  HIS160      0.1621
     33  C         67.2480    6.1020   20.7560 C.2   160  HIS160      0.2264
     34  O         68.0220    6.8720   20.1900 O.2   160  HIS160     -0.2867
     35  CB        67.8320    5.0450   22.9400 C.3   160  HIS160      0.0745
     36  CG        68.8180    6.0930   23.3370 C.ar  160  HIS160      0.0817
     37  ND1       70.1770    5.9240   23.1970 N.ar  160  HIS160     -0.2268
     38  CD2       68.6430    7.3370   23.8430 C.ar  160  HIS160      0.1154
     39  CE1       70.7980    7.0160   23.6090 C.ar  160  HIS160      0.1986
     40  NE2       69.8900    7.8930   23.9960 N.ar  160  HIS160     -0.2212
     41  N         65.1970    9.6380   21.6600 N.3   162  ASP162     -0.1239
     42  CA        65.2130   10.4840   22.8490 C.3   162  ASP162      0.1674
     43  C         63.7610   10.7790   23.2590 C.2   162  ASP162      0.2266
     44  O         62.8660   10.7850   22.4240 O.2   162  ASP162     -0.2867
     45  CB        66.0800   11.7390   22.6370 C.3   162  ASP162      0.1410
     46  CG        67.5700   11.5130   23.0230 C.2   162  ASP162      0.3668
     47  OD1       68.3580   12.4900   23.0050 O.co2 162  ASP162     -0.2456
     48  OD2       68.0710   10.3950   23.3370 O.co2 162  ASP162     -0.2456
     49  N         72.2220   19.4360   21.0820 N.3   169  ILE169     -0.1245
     50  CA        73.5540   19.0670   21.5180 C.3   169  ILE169      0.1561
     51  C         74.5310   20.1310   21.1010 C.2   169  ILE169      0.2260
     52  O         74.5600   20.5340   19.9450 O.2   169  ILE169     -0.2867
     53  CB        73.9940   17.7560   20.8760 C.3   169  ILE169      0.0252
     54  CG1       72.8830   16.7080   20.9280 C.3   169  ILE169      0.0019
     55  CG2       75.2400   17.2360   21.5570 C.3   169  ILE169      0.0019
     56  CD1       72.3090   16.4320   22.3020 C.3   169  ILE169      0.0001
     57  N         79.1810   10.4570   18.8690 N.3   181  LEU181     -0.1245
     58  CA        77.7520   10.5180   18.6030 C.3   181  LEU181      0.1561
     59  C         77.4510   10.1120   17.1790 C.2   181  LEU181      0.2260
     60  O         78.0460   10.6300   16.2480 O.2   181  LEU181     -0.2867
     61  CB        77.2670   11.9390   18.8480 C.3   181  LEU181      0.0270
     62  CG        75.7850   12.0790   19.1430 C.3   181  LEU181      0.0019
     63  CD1       75.5090   11.7860   20.5980 C.3   181  LEU181      0.0001
     64  CD2       75.3370   13.4780   18.7960 C.3   181  LEU181      0.0001
     65  N         68.3060   16.7460   17.4260 N.3   202  PHE202     -0.1241
     66  CA        67.4550   15.5760   17.2750 C.3   202  PHE202      0.1605
     67  C         66.0090   15.9970   17.4800 C.2   202  PHE202      0.2264
     68  O         65.7010   16.7720   18.3730 O.2   202  PHE202     -0.2867
     69  CB        67.7630   14.4780   18.3110 C.3   202  PHE202      0.0534
     70  CG        69.1370   13.8410   18.1830 C.ar  202  PHE202     -0.0203
     71  CD1       69.6860   13.5280   16.9440 C.ar  202  PHE202     -0.0042
     72  CD2       69.8760   13.5360   19.3280 C.ar  202  PHE202     -0.0042
     73  CE1       70.9410   12.9380   16.8590 C.ar  202  PHE202     -0.0003
     74  CE2       71.1280   12.9640   19.2360 C.ar  202  PHE202     -0.0003
     75  CZ        71.6590   12.6620   18.0020 C.ar  202  PHE202     -0.0000
     76  N         69.6870    6.9700   18.0280 N.3   220  HIS220     -0.1241
     77  CA        71.0720    7.4230   18.1010 C.3   220  HIS220      0.1621
     78  C         71.7590    6.7640   19.2960 C.2   220  HIS220      0.2264
     79  O         71.0960    6.3530   20.2440 O.2   220  HIS220     -0.2867
     80  CB        71.1060    8.9470   18.2420 C.3   220  HIS220      0.0745
     81  CG        70.3440    9.4600   19.4260 C.ar  220  HIS220      0.0817
     82  ND1       69.0070    9.7830   19.3590 N.ar  220  HIS220     -0.2268
     83  CD2       70.7170    9.6610   20.7160 C.ar  220  HIS220      0.1154
     84  CE1       68.5950   10.1760   20.5510 C.ar  220  HIS220      0.1986
     85  NE2       69.6100   10.1020   21.3960 N.ar  220  HIS220     -0.2212
     86  N         75.7330    6.6650   21.7900 N.3   222  VAL222     -0.1245
     87  CA        76.9420    7.3770   22.1890 C.3   222  VAL222      0.1561
     88  C         78.0410    6.3600   22.5240 C.2   222  VAL222      0.2260
     89  O         78.0520    5.7230   23.5890 O.2   222  VAL222     -0.2867
     90  CB        76.6730    8.4220   23.3300 C.3   222  VAL222      0.0252
     91  CG1       75.8190    7.8260   24.4770 C.3   222  VAL222      0.0019
     92  CG2       77.9590    8.9800   23.8510 C.3   222  VAL222      0.0019
     93  N         79.9210   17.4200   26.1700 N.3   237  SER237     -0.1217
     94  CA        78.6490   17.5670   25.5000 C.3   237  SER237      0.1889
     95  C         77.6140   18.2880   26.3700 C.2   237  SER237      0.2288
     96  O         77.5140   18.0560   27.5720 O.2   237  SER237     -0.2866
     97  CB        78.1120   16.2030   25.1180 C.3   237  SER237      0.2089
     98  OG        76.8160   16.3560   24.5660 O.3   237  SER237     -0.2183
     99  N         73.5940   18.9490   26.5410 N.3   239  VAL239     -0.1245
    100  CA        72.4770   18.2660   25.9300 C.3   239  VAL239      0.1561
    101  C         71.1990   18.6910   26.5870 C.2   239  VAL239      0.2260
    102  O         70.9250   18.2890   27.7040 O.2   239  VAL239     -0.2867
    103  CB        72.6340   16.7410   26.0530 C.3   239  VAL239      0.0252
    104  CG1       71.4360   16.0190   25.4330 C.3   239  VAL239      0.0019
    105  CG2       73.9350   16.2920   25.4190 C.3   239  VAL239      0.0019
    106  N         67.4090   18.6020   26.8910 N.3   241  PHE241     -0.1241
    107  CA        66.1740   17.8760   26.5990 C.3   241  PHE241      0.1605
    108  C         64.9510   18.7540   26.8070 C.2   241  PHE241      0.2264
    109  O         64.6790   19.2090   27.9190 O.2   241  PHE241     -0.2867
    110  CB        66.0240   16.6610   27.5100 C.3   241  PHE241      0.0534
    111  CG        67.1100   15.6570   27.3710 C.ar  241  PHE241     -0.0203
    112  CD1       67.0200   14.6440   26.4350 C.ar  241  PHE241     -0.0042
    113  CD2       68.2200   15.7040   28.1920 C.ar  241  PHE241     -0.0042
    114  CE1       68.0320   13.7040   26.3120 C.ar  241  PHE241     -0.0003
    115  CE2       69.2270   14.7650   28.0680 C.ar  241  PHE241     -0.0003
    116  CZ        69.1330   13.7720   27.1360 C.ar  241  PHE241     -0.0000
@<TRIPOS>BOND
     1    60    59    2
     2    73    71   ar
     3    73    75   ar
     4    71    70   ar
     5    59    58    1
     6    66    65    1
     7    66    67    1
     8    66    69    1
     9    67    68    2
    10    75    74   ar
    11    76    77    1
    12    77    80    1
    13    77    78    1
    14    70    69    1
    15    70    72   ar
    16    80    81    1
    17    58    61    1
    18    58    57    1
    19    64    62    1
    20    61    62    1
    21    62    63    1
    22    74    72   ar
    23    78    79    2
    24    82    81   ar
    25    82    84   ar
    26    81    83   ar
    27    52    51    2
    28    34    33    2
    29    84    85   ar
    30    83    85   ar
    31    33    32    1
    32    53    54    1
    33    53    50    1
    34    53    55    1
    35    31    32    1
    36    54    56    1
    37    49    50    1
    38    51    50    1
    39    32    35    1
    40    41    42    1
    41    86    87    1
    42    26    25    2
    43    87    88    1
    44    87    90    1
    45    44    43    2
    46    88    89    2
    47    45    42    1
    48    45    46    1
    49    42    43    1
    50    35    36    1
    51    47    46   ar
    52    46    48   ar
    53    25    24    1
    54    37    36   ar
    55    37    39   ar
    56    90    92    1
    57    90    91    1
    58    36    38   ar
    59    39    40   ar
    60    38    40   ar
    61    23    24    1
    62    24    27    1
    63    98    97    1
    64    97    94    1
    65    27    28    1
    66   105   103    1
    67   104   103    1
    68    94    93    1
    69    94    95    1
    70   100   103    1
    71   100    99    1
    72   100   101    1
    73   114   112   ar
    74   114   116   ar
    75    95    96    2
    76   112   111   ar
    77   101   102    2
    78   107   108    1
    79   107   106    1
    80   107   110    1
    81    28    29    1
    82   108   109    2
    83   116   115   ar
    84   111   110    1
    85   111   113   ar
    86    29    30    1
    87   115   113   ar
    88    15    14    2
    89     4     3    2
    90    16    17    1
    91    16    13    1
    92    17    18    1
    93    14    13    1
    94    18    19    1
    95    12    13    1
    96     3     2    1
    97     1     2    1
    98     5     2    1
    99     5     6    1
   100    21    20    1
   101    19    20    2
   102    20    22    1
   103     6     7    1
   104     7     8    1
   105    10     9    1
   106     8     9    2
   107     9    11    1
