@<TRIPOS>MOLECULE
tmp/1w2tC00.pdb
 162 157 0 0 0
SMALL
GASTEIGER

@<TRIPOS>ATOM
      1  N        -23.9040   21.5880  -44.8060 N.3    16  ASN16      -0.1225
      2  CA       -24.0360   20.7460  -43.6080 C.3    16  ASN16       0.1785
      3  C        -22.6760   20.4220  -42.9480 C.2    16  ASN16       0.2597
      4  O        -21.9890   21.3530  -42.5270 O.2    16  ASN16      -0.2718
      5  CB       -24.9860   19.5220  -43.7900 C.3    16  ASN16       0.1169
      6  CG       -24.6330   18.6280  -44.9730 C.2    16  ASN16       0.2627
      7  OD1      -24.6780   19.0520  -46.1220 O.2    16  ASN16      -0.2716
      8  ND2      -24.3270   17.3580  -44.6910 N.am   16  ASN16      -0.0877
      9  N        -22.2760   19.1530  -42.8760 N.am   17  ASP17      -0.1974
     10  CA       -21.2280   18.7110  -41.9340 C.3    17  ASP17       0.1709
     11  C        -19.8970   19.4510  -42.0680 C.2    17  ASP17       0.2293
     12  O        -19.4390   19.6780  -43.1870 O.2    17  ASP17      -0.2864
     13  CB       -20.8770   17.2340  -42.1360 C.3    17  ASP17       0.1436
     14  CG       -22.0680   16.3200  -42.1410 C.2    17  ASP17       0.3671
     15  OD1      -23.2270   16.7570  -41.9530 O.co2  17  ASP17      -0.2456
     16  OD2      -21.9100   15.1070  -42.3530 O.co2  17  ASP17      -0.2456
     17  N        -19.6050   20.1110  -46.2060 N.3    33  GLN33      -0.1245
     18  CA       -20.5550   19.6300  -47.2020 C.3    33  GLN33       0.1566
     19  C        -21.2740   20.8490  -47.7500 C.2    33  GLN33       0.2260
     20  O        -21.8090   21.6390  -46.9800 O.2    33  GLN33      -0.2867
     21  CB       -21.5610   18.6600  -46.5740 C.3    33  GLN33       0.0367
     22  CG       -20.9570   17.3580  -46.0790 C.3    33  GLN33       0.0905
     23  CD       -20.5810   16.4350  -47.2130 C.2    33  GLN33       0.2608
     24  OE1      -21.4090   15.6660  -47.6900 O.2    33  GLN33      -0.2717
     25  NE2      -19.3370   16.5210  -47.6610 N.am   33  GLN33      -0.0878
     26  N        -29.8880   20.6730  -49.9910 N.3    41  TRP41      -0.1241
     27  CA       -28.8860   19.6250  -50.1820 C.3    41  TRP41       0.1605
     28  C        -28.8970   19.0420  -51.5990 C.2    41  TRP41       0.2264
     29  O        -29.9610   18.8460  -52.1870 O.2    41  TRP41      -0.2867
     30  CB       -29.1410   18.5060  -49.1640 C.3    41  TRP41       0.0550
     31  CG       -28.0690   17.4690  -49.0910 C.ar   41  TRP41       0.0003
     32  CD1      -27.0200   17.4370  -48.2210 C.ar   41  TRP41       0.0946
     33  CD2      -27.9470   16.3010  -49.9080 C.ar   41  TRP41       0.0152
     34  NE1      -26.2480   16.3240  -48.4490 N.ar   41  TRP41      -0.2442
     35  CE2      -26.7930   15.6090  -49.4820 C.ar   41  TRP41       0.0810
     36  CE3      -28.6910   15.7710  -50.9670 C.ar   41  TRP41       0.0012
     37  CZ2      -26.3690   14.4190  -50.0740 C.ar   41  TRP41       0.0191
     38  CZ3      -28.2690   14.5850  -51.5570 C.ar   41  TRP41       0.0001
     39  CH2      -27.1170   13.9250  -51.1090 C.ar   41  TRP41       0.0015
     40  N        -19.0350   13.1860  -50.2630 N.3    74  PHE74      -0.1227
     41  CA       -19.5930   13.0960  -48.9120 C.3    74  PHE74       0.1736
     42  C        -18.5290   13.3650  -47.8330 C.2    74  PHE74       0.2596
     43  O        -17.3850   13.6940  -48.1470 O.2    74  PHE74      -0.2718
     44  CB       -20.2820   11.7310  -48.7200 C.3    74  PHE74       0.0547
     45  CG       -21.6810   11.6490  -49.3070 C.ar   74  PHE74      -0.0202
     46  CD1      -22.1080   12.5120  -50.3160 C.ar   74  PHE74      -0.0042
     47  CD2      -22.5700   10.6930  -48.8390 C.ar   74  PHE74      -0.0042
     48  CE1      -23.3920   12.4160  -50.8380 C.ar   74  PHE74      -0.0003
     49  CE2      -23.8540   10.5900  -49.3620 C.ar   74  PHE74      -0.0003
     50  CZ       -24.2650   11.4550  -50.3610 C.ar   74  PHE74      -0.0000
     51  N        -18.9110   13.2420  -46.5650 N.am   75  SER75      -0.1952
     52  CA       -18.0750   13.7200  -45.4630 C.3    75  SER75       0.1924
     53  C        -16.7800   12.9330  -45.2670 C.2    75  SER75       0.2314
     54  O        -16.6070   11.8240  -45.7780 O.2    75  SER75      -0.2863
     55  CB       -18.8740   13.7660  -44.1580 C.3    75  SER75       0.2116
     56  OG       -19.8680   14.7730  -44.2250 O.3    75  SER75      -0.2180
     57  N        -19.7830    9.2010  -53.2610 N.3    92  TYR92      -0.1241
     58  CA       -21.1190    8.6090  -53.3110 C.3    92  TYR92       0.1605
     59  C        -21.6550    8.5890  -54.7350 C.2    92  TYR92       0.2264
     60  O        -21.5110    9.5610  -55.4650 O.2    92  TYR92      -0.2867
     61  CB       -22.0670    9.4200  -52.4220 C.3    92  TYR92       0.0534
     62  CG       -23.5030    8.9570  -52.4610 C.ar   92  TYR92      -0.0201
     63  CD1      -24.4330    9.5810  -53.2850 C.ar   92  TYR92      -0.0009
     64  CD2      -23.9320    7.8930  -51.6740 C.ar   92  TYR92      -0.0009
     65  CE1      -25.7560    9.1590  -53.3240 C.ar   92  TYR92       0.0417
     66  CE2      -25.2530    7.4650  -51.7080 C.ar   92  TYR92       0.0417
     67  CZ       -26.1610    8.1050  -52.5330 C.ar   92  TYR92       0.1957
     68  OH       -27.4740    7.6920  -52.5820 O.3    92  TYR92      -0.2866
     69  N        -27.1890    2.3500  -54.6450 N.3   101  GLU101     -0.1245
     70  CA       -26.1410    3.3310  -54.3670 C.3   101  GLU101      0.1567
     71  C        -24.8040    2.6500  -54.0610 C.2   101  GLU101      0.2260
     72  O        -24.7560    1.4620  -53.7310 O.2   101  GLU101     -0.2867
     73  CB       -26.5450    4.2630  -53.2210 C.3   101  GLU101      0.0388
     74  CG       -26.5690    3.6160  -51.8510 C.3   101  GLU101      0.1160
     75  CD       -26.9230    4.6050  -50.7570 C.2   101  GLU101      0.3649
     76  OE1      -28.0280    5.1850  -50.8100 O.co2 101  GLU101     -0.2457
     77  OE2      -26.1000    4.7950  -49.8300 O.co2 101  GLU101     -0.2457
     78  N        -24.6180   -0.8550  -44.9660 N.3   134  HIS134     -0.1241
     79  CA       -24.9350    0.3910  -45.6530 C.3   134  HIS134      0.1621
     80  C        -24.4520    1.6060  -44.8540 C.2   134  HIS134      0.2264
     81  O        -23.9730    1.4650  -43.7320 O.2   134  HIS134     -0.2867
     82  CB       -26.4390    0.4950  -45.9020 C.3   134  HIS134      0.0745
     83  CG       -26.7930    1.5690  -46.8770 C.ar  134  HIS134      0.0817
     84  ND1      -26.8310    1.3470  -48.2360 N.ar  134  HIS134     -0.2268
     85  CD2      -27.0600    2.8860  -46.6990 C.ar  134  HIS134      0.1154
     86  CE1      -27.1380    2.4740  -48.8500 C.ar  134  HIS134      0.1986
     87  NE2      -27.2720    3.4270  -47.9420 N.ar  134  HIS134     -0.2212
     88  N        -19.5760    5.2130  -44.6620 N.3   137  ARG137     -0.1231
     89  CA       -19.0640    6.5520  -44.9650 C.3   137  ARG137      0.1694
     90  C        -18.5130    7.3460  -43.7720 C.2   137  ARG137      0.2592
     91  O        -18.6390    6.9430  -42.6130 O.2   137  ARG137     -0.2718
     92  CB       -20.1630    7.3730  -45.6560 C.3   137  ARG137      0.0321
     93  CG       -21.3710    7.6570  -44.7860 C.3   137  ARG137      0.0489
     94  CD       -22.4940    8.3650  -45.5130 C.3   137  ARG137      0.2205
     95  NE       -23.7650    8.1730  -44.8220 N.pl3 137  ARG137     -0.0865
     96  CZ       -24.9170    7.8290  -45.3990 C.cat 137  ARG137      0.5346
     97  NH1      -25.0070    7.6300  -46.7120 N.pl3 137  ARG137      0.1354
     98  NH2      -25.9970    7.6830  -44.6440 N.pl3 137  ARG137      0.1354
     99  N        -17.9110    8.4900  -44.0930 N.am  138  ASP138     -0.1974
    100  CA       -17.3630    9.4360  -43.1180 C.3   138  ASP138      0.1709
    101  C        -16.0740    8.9350  -42.4570 C.2   138  ASP138      0.2293
    102  O        -16.0260    8.7670  -41.2390 O.2   138  ASP138     -0.2864
    103  CB       -18.4040    9.7970  -42.0450 C.3   138  ASP138      0.1436
    104  CG       -19.7490   10.1490  -42.6310 C.2   138  ASP138      0.3671
    105  OD1      -19.7970   10.5750  -43.8050 O.co2 138  ASP138     -0.2456
    106  OD2      -20.8180   10.0260  -41.9950 O.co2 138  ASP138     -0.2456
    107  N        -28.0340    3.1380  -37.7500 N.3   188  GLU188     -0.1245
    108  CA       -26.7340    3.5360  -38.2860 C.3   188  GLU188      0.1567
    109  C        -26.0570    4.6330  -37.4550 C.2   188  GLU188      0.2260
    110  O        -26.7250    5.4580  -36.8250 O.2   188  GLU188     -0.2867
    111  CB       -26.8690    3.9730  -39.7520 C.3   188  GLU188      0.0388
    112  CG       -27.3740    5.3920  -39.9580 C.3   188  GLU188      0.1160
    113  CD       -27.4370    5.7920  -41.4190 C.2   188  GLU188      0.3649
    114  OE1      -27.9950    5.0250  -42.2360 O.co2 188  GLU188     -0.2457
    115  OE2      -26.9320    6.8860  -41.7460 O.co2 188  GLU188     -0.2457
    116  N        -23.3040    7.8320  -37.6750 N.3   190  ASP190     -0.1225
    117  CA       -22.7120    8.8080  -38.5830 C.3   190  ASP190      0.1805
    118  C        -21.4980    9.4610  -37.9440 C.2   190  ASP190      0.2598
    119  O        -21.4020    9.5460  -36.7230 O.2   190  ASP190     -0.2718
    120  CB       -23.7130    9.9240  -38.8960 C.3   190  ASP190      0.1424
    121  CG       -24.7080    9.5500  -39.9730 C.2   190  ASP190      0.3668
    122  OD1      -24.8310    8.3630  -40.3180 O.co2 190  ASP190     -0.2456
    123  OD2      -25.4300   10.4010  -40.5200 O.co2 190  ASP190     -0.2456
    124  N        -20.5740    9.9170  -38.7820 N.am  191  CYS191     -0.1970
    125  CA       -19.5110   10.8290  -38.3640 C.3   191  CYS191      0.1712
    126  C        -18.7840   10.4120  -37.0770 C.2   191  CYS191      0.2296
    127  O        -18.6870   11.1990  -36.1330 O.2   191  CYS191     -0.2864
    128  CB       -20.0900   12.2360  -38.1960 C.3   191  CYS191      0.0983
    129  SG       -21.1040   12.7820  -39.5920 S.3   191  CYS191     -0.0798
    130  N        -28.6730   10.1890  -36.2890 N.3   208  THR208     -0.1218
    131  CA       -29.5010   11.1010  -37.0880 C.3   208  THR208      0.1862
    132  C        -30.9260   11.2620  -36.5660 C.2   208  THR208      0.2287
    133  O        -31.4780   12.3660  -36.6030 O.2   208  THR208     -0.2866
    134  CB       -29.5410   10.6240  -38.5590 C.3   208  THR208      0.1770
    135  OG1      -28.2040   10.4910  -39.0590 O.3   208  THR208     -0.2211
    136  CG2      -30.1630   11.6770  -39.4730 C.3   208  THR208      0.0375
    137  N        -24.7670   18.7420  -34.3670 N.3   240  TYR240     -0.1241
    138  CA       -24.7200   17.4900  -35.1240 C.3   240  TYR240      0.1605
    139  C        -23.4500   17.3350  -35.9590 C.2   240  TYR240      0.2264
    140  O        -22.7940   18.3150  -36.3070 O.2   240  TYR240     -0.2867
    141  CB       -25.9390   17.3900  -36.0460 C.3   240  TYR240      0.0534
    142  CG       -26.1450   16.0020  -36.6120 C.ar  240  TYR240     -0.0201
    143  CD1      -26.5500   14.9510  -35.7940 C.ar  240  TYR240     -0.0009
    144  CD2      -25.8910   15.7270  -37.9500 C.ar  240  TYR240     -0.0009
    145  CE1      -26.7160   13.6750  -36.3000 C.ar  240  TYR240      0.0417
    146  CE2      -26.0550   14.4510  -38.4620 C.ar  240  TYR240      0.0417
    147  CZ       -26.4660   13.4300  -37.6280 C.ar  240  TYR240      0.1957
    148  OH       -26.6320   12.1600  -38.1240 O.3   240  TYR240     -0.2866
    149  N        -31.3270   18.0890  -38.9540 N.3   260  TRP260     -0.1241
    150  CA       -32.0570   17.5270  -40.0970 C.3   260  TRP260      0.1605
    151  C        -33.5550   17.4510  -39.8050 C.2   260  TRP260      0.2264
    152  O        -34.3830   17.6240  -40.7030 O.2   260  TRP260     -0.2867
    153  CB       -31.5440   16.1270  -40.4510 C.3   260  TRP260      0.0550
    154  CG       -30.1820   16.1260  -41.0640 C.ar  260  TRP260      0.0003
    155  CD1      -29.0220   15.7150  -40.4760 C.ar  260  TRP260      0.0946
    156  CD2      -29.8300   16.5630  -42.3810 C.ar  260  TRP260      0.0152
    157  NE1      -27.9700   15.8700  -41.3450 N.ar  260  TRP260     -0.2442
    158  CE2      -28.4390   16.3860  -42.5250 C.ar  260  TRP260      0.0810
    159  CE3      -30.5530   17.0910  -43.4600 C.ar  260  TRP260      0.0012
    160  CZ2      -27.7560   16.7150  -43.7000 C.ar  260  TRP260      0.0191
    161  CZ3      -29.8720   17.4170  -44.6270 C.ar  260  TRP260      0.0001
    162  CH2      -28.4900   17.2270  -44.7350 C.ar  260  TRP260      0.0015
@<TRIPOS>BOND
     1    60    59    2
     2    59    58    1
     3    69    70    1
     4    70    71    1
     5    70    73    1
     6    71    72    2
     7    65    63   ar
     8    65    67   ar
     9    58    57    1
    10    58    61    1
    11    63    62   ar
    12    73    74    1
    13    68    67    1
    14    67    66   ar
    15    62    61    1
    16    62    64   ar
    17    29    28    2
    18    74    75    1
    19    66    64   ar
    20    28    27    1
    21    38    39   ar
    22    38    36   ar
    23    39    37   ar
    24    36    33   ar
    25    48    50   ar
    26    48    46   ar
    27    76    75   ar
    28    75    77   ar
    29    50    49   ar
    30    46    45   ar
    31    40    41    1
    32    27    26    1
    33    27    30    1
    34    37    35   ar
    35    33    35   ar
    36    33    31   ar
    37    35    34   ar
    38    49    47   ar
    39    45    47   ar
    40    45    44    1
    41    30    31    1
    42    31    32   ar
    43    41    44    1
    44    41    42    1
    45    86    84   ar
    46    86    87   ar
    47    34    32   ar
    48    84    83   ar
    49    43    42    2
    50    87    85   ar
    51    42    51   am
    52    19    18    1
    53    19    20    2
    54    24    23    2
    55    25    23   am
    56    23    22    1
    57    18    21    1
    58    18    17    1
    59    83    85   ar
    60    83    82    1
    61    97    96    1
    62    21    22    1
    63    51    52    1
    64     7     6    2
    65    82    79    1
    66    54    53    2
    67    92    89    1
    68    92    93    1
    69    79    78    1
    70    79    80    1
    71    94    95    1
    72    94    93    1
    73    52    53    1
    74    52    55    1
    75    96    95    2
    76    96    98    1
    77     6     8   am
    78     6     5    1
    79    89    88    1
    80    89    90    1
    81    80    81    2
    82     1     2    1
    83   162   161   ar
    84   162   160   ar
    85   161   159   ar
    86    56    55    1
    87    99    90   am
    88    99   100    1
    89   105   104   ar
    90     5     2    1
    91    90    91    2
    92   160   158   ar
    93     2     3    1
    94   159   156   ar
    95    12    11    2
    96   100   101    1
    97   100   103    1
    98     3     9   am
    99     3     4    2
   100     9    10    1
   101   104   103    1
   102   104   106   ar
   103   158   156   ar
   104   158   157   ar
   105   101   102    2
   106   156   154   ar
   107    16    14   ar
   108   114   113   ar
   109    14    13    1
   110    14    15   ar
   111    13    10    1
   112    11    10    1
   113   115   113   ar
   114   113   112    1
   115   157   155   ar
   116   154   155   ar
   117   154   153    1
   118   152   151    2
   119   123   121   ar
   120   153   150    1
   121   122   121   ar
   122   150   151    1
   123   150   149    1
   124   121   120    1
   125   112   111    1
   126   111   108    1
   127   129   128    1
   128   136   134    1
   129   135   134    1
   130   120   117    1
   131   124   125    1
   132   124   118   am
   133   117   118    1
   134   117   116    1
   135   134   131    1
   136   146   144   ar
   137   146   147   ar
   138   125   128    1
   139   125   126    1
   140   108   107    1
   141   108   109    1
   142   148   147    1
   143   144   142   ar
   144   118   119    2
   145   147   145   ar
   146   109   110    2
   147   131   132    1
   148   131   130    1
   149   126   127    2
   150   142   141    1
   151   142   143   ar
   152   133   132    2
   153   140   139    2
   154   145   143   ar
   155   141   138    1
   156   139   138    1
   157   138   137    1
