@<TRIPOS>MOLECULE
tmp/1w2uA00.pdb
 251 242 0 0 0
SMALL
GASTEIGER

@<TRIPOS>ATOM
      1  N          8.1050   18.4810   68.9520 N.3     8  TYR8       -0.1241
      2  CA         9.0530   17.6290   68.2270 C.3     8  TYR8        0.1605
      3  C          9.2600   16.2340   68.8380 C.2     8  TYR8        0.2264
      4  O         10.3060   15.5980   68.6580 O.2     8  TYR8       -0.2867
      5  CB        10.3860   18.3510   68.0160 C.3     8  TYR8        0.0534
      6  CG        10.2640   19.6420   67.2540 C.ar    8  TYR8       -0.0201
      7  CD1        9.7140   19.6840   65.9720 C.ar    8  TYR8       -0.0009
      8  CD2       10.6940   20.8410   67.8110 C.ar    8  TYR8       -0.0009
      9  CE1        9.6180   20.8800   65.2750 C.ar    8  TYR8        0.0417
     10  CE2       10.5990   22.0330   67.1270 C.ar    8  TYR8        0.0417
     11  CZ        10.0540   22.0530   65.8580 C.ar    8  TYR8        0.1957
     12  OH         9.9590   23.2480   65.1870 O.3     8  TYR8       -0.2866
     13  N          6.8290   12.4480   63.5950 N.3    19  LEU19      -0.1245
     14  CA         7.2250   13.6540   64.3210 C.3    19  LEU19       0.1561
     15  C          6.0330   14.5520   64.6590 C.2    19  LEU19       0.2260
     16  O          5.2400   14.8810   63.7830 O.2    19  LEU19      -0.2867
     17  CB         8.2610   14.4400   63.5190 C.3    19  LEU19       0.0270
     18  CG         8.8250   15.7090   64.1760 C.3    19  LEU19       0.0019
     19  CD1        9.7210   15.3510   65.3560 C.3    19  LEU19       0.0001
     20  CD2        9.5900   16.5590   63.1820 C.3    19  LEU19       0.0001
     21  N          5.3900   17.6550   64.7540 N.3    21  ASN21      -0.1240
     22  CA         6.1540   18.7030   64.1100 C.3    21  ASN21       0.1653
     23  C          5.4050   20.0250   64.2100 C.2    21  ASN21       0.2266
     24  O          4.8750   20.5240   63.2250 O.2    21  ASN21      -0.2867
     25  CB         6.3580   18.2640   62.6390 C.3    21  ASN21       0.1155
     26  CG         7.0990   19.2720   61.7790 C.2    21  ASN21       0.2627
     27  OD1        6.8780   19.3410   60.5470 O.2    21  ASN21      -0.2716
     28  ND2        7.9850   20.0350   62.3760 N.am   21  ASN21      -0.0877
     29  N          5.9850   23.1460   64.1620 N.3    23  TRP23      -0.1241
     30  CA         7.0330   24.0960   63.8230 C.3    23  TRP23       0.1605
     31  C          6.6030   25.5560   63.8630 C.2    23  TRP23       0.2264
     32  O          7.4530   26.4420   64.0140 O.2    23  TRP23      -0.2867
     33  CB         7.6330   23.7490   62.4620 C.3    23  TRP23       0.0550
     34  CG         6.7350   23.8600   61.2680 C.ar   23  TRP23       0.0003
     35  CD1        6.0600   22.8370   60.6450 C.ar   23  TRP23       0.0946
     36  CD2        6.4580   25.0340   60.5040 C.ar   23  TRP23       0.0152
     37  NE1        5.3650   23.3210   59.5660 N.ar   23  TRP23      -0.2442
     38  CE2        5.6000   24.6650   59.4490 C.ar   23  TRP23       0.0810
     39  CE3        6.8320   26.3780   60.6150 C.ar   23  TRP23       0.0012
     40  CZ2        5.1220   25.5800   58.5130 C.ar   23  TRP23       0.0191
     41  CZ3        6.3620   27.2780   59.6780 C.ar   23  TRP23       0.0001
     42  CH2        5.5130   26.8770   58.6420 C.ar   23  TRP23       0.0015
     43  N         -3.4080   32.4330   58.5410 N.3    58  ASP58      -0.1239
     44  CA        -2.5490   32.1510   57.3850 C.3    58  ASP58       0.1674
     45  C         -1.2260   31.4660   57.7320 C.2    58  ASP58       0.2266
     46  O         -0.4300   31.1660   56.8390 O.2    58  ASP58      -0.2867
     47  CB        -2.2400   33.4560   56.6400 C.3    58  ASP58       0.1410
     48  CG        -3.3890   33.9380   55.8010 C.2    58  ASP58       0.3668
     49  OD1       -4.3660   33.1890   55.6070 O.co2  58  ASP58      -0.2456
     50  OD2       -3.3840   35.0750   55.2650 O.co2  58  ASP58      -0.2456
     51  N          0.7680   28.2870   59.2370 N.3    60  VAL60      -0.1245
     52  CA         0.7760   26.8850   59.6150 C.3    60  VAL60       0.1561
     53  C          1.3030   26.8010   61.0420 C.2    60  VAL60       0.2260
     54  O          2.3260   27.3960   61.3490 O.2    60  VAL60      -0.2867
     55  CB         1.6550   26.0520   58.6470 C.3    60  VAL60       0.0252
     56  CG1        1.8160   24.6130   59.1300 C.3    60  VAL60       0.0019
     57  CG2        1.0680   26.0760   57.2450 C.3    60  VAL60       0.0019
     58  N          2.8890   20.5480   61.0210 N.3    63  TYR63      -0.1241
     59  CA         2.7850   19.5470   59.9720 C.3    63  TYR63       0.1605
     60  C          3.2690   18.2220   60.5560 C.2    63  TYR63       0.2264
     61  O          4.3520   17.7360   60.2080 O.2    63  TYR63      -0.2867
     62  CB         3.5880   19.9620   58.7230 C.3    63  TYR63       0.0534
     63  CG         3.6110   18.9230   57.6060 C.ar   63  TYR63      -0.0201
     64  CD1        2.4470   18.5270   56.9530 C.ar   63  TYR63      -0.0009
     65  CD2        4.7990   18.3280   57.2180 C.ar   63  TYR63      -0.0009
     66  CE1        2.4830   17.5820   55.9320 C.ar   63  TYR63       0.0417
     67  CE2        4.8360   17.3780   56.2100 C.ar   63  TYR63       0.0417
     68  CZ         3.6870   17.0050   55.5770 C.ar   63  TYR63       0.1957
     69  OH         3.7530   16.0540   54.5880 O.3    63  TYR63      -0.2866
     70  N          3.9040   14.5130   60.6640 N.3    65  TYR65      -0.1241
     71  CA         4.1000   13.6450   59.5170 C.3    65  TYR65       0.1605
     72  C          4.6530   12.3010   59.8840 C.2    65  TYR65       0.2264
     73  O          5.2620   12.1160   60.9480 O.2    65  TYR65      -0.2867
     74  CB         5.0330   14.2950   58.4930 C.3    65  TYR65       0.0534
     75  CG         6.4680   14.5690   58.9590 C.ar   65  TYR65      -0.0201
     76  CD1        7.4020   13.5530   59.0540 C.ar   65  TYR65      -0.0009
     77  CD2        6.8870   15.8500   59.2520 C.ar   65  TYR65      -0.0009
     78  CE1        8.6980   13.8010   59.4720 C.ar   65  TYR65       0.0417
     79  CE2        8.2000   16.1130   59.6450 C.ar   65  TYR65       0.0417
     80  CZ         9.0930   15.0830   59.7670 C.ar   65  TYR65       0.1957
     81  OH        10.3990   15.3600   60.1470 O.3    65  TYR65      -0.2866
     82  N         -9.1810   24.9310   59.1160 N.3    96  ARG96      -0.1245
     83  CA        -8.2090   25.3690   58.1270 C.3    96  ARG96       0.1563
     84  C         -7.0350   24.4160   58.2280 C.2    96  ARG96       0.2260
     85  O         -6.2520   24.4620   59.1800 O.2    96  ARG96      -0.2867
     86  CB        -7.7780   26.8140   58.3720 C.3    96  ARG96       0.0307
     87  CG        -8.8290   27.8110   57.9650 C.3    96  ARG96       0.0489
     88  CD        -8.4910   29.2520   58.3030 C.3    96  ARG96       0.2205
     89  NE        -7.3710   29.8270   57.5620 N.pl3  96  ARG96      -0.0865
     90  CZ        -7.4350   30.3250   56.3200 C.cat  96  ARG96       0.5346
     91  NH1       -8.5630   30.2530   55.6180 N.pl3  96  ARG96       0.1354
     92  NH2       -6.3500   30.8610   55.7690 N.pl3  96  ARG96       0.1354
     93  N          4.8050   15.7950   51.3600 N.3   102  ASP102     -0.1239
     94  CA         5.8240   16.8470   51.3470 C.3   102  ASP102      0.1674
     95  C          7.1530   16.1890   50.9930 C.2   102  ASP102      0.2266
     96  O          7.5600   15.1940   51.6160 O.2   102  ASP102     -0.2867
     97  CB         5.9290   17.5240   52.7060 C.3   102  ASP102      0.1410
     98  CG         6.5030   18.9100   52.6440 C.2   102  ASP102      0.3668
     99  OD1        6.4450   19.5750   51.5740 O.co2 102  ASP102     -0.2456
    100  OD2        7.0210   19.4470   53.6600 O.co2 102  ASP102     -0.2456
    101  N         11.2210   17.4040   49.9880 N.3   104  PHE104     -0.1241
    102  CA        12.2290   18.4450   49.7950 C.3   104  PHE104      0.1605
    103  C         13.3850   17.8520   49.0120 C.2   104  PHE104      0.2264
    104  O         13.7170   16.6890   49.1960 O.2   104  PHE104     -0.2867
    105  CB        12.7790   18.9590   51.1360 C.3   104  PHE104      0.0534
    106  CG        11.8130   19.7710   51.9430 C.ar  104  PHE104     -0.0203
    107  CD1       11.1270   20.8390   51.3890 C.ar  104  PHE104     -0.0042
    108  CD2       11.6730   19.5240   53.2920 C.ar  104  PHE104     -0.0042
    109  CE1       10.2590   21.5930   52.1630 C.ar  104  PHE104     -0.0003
    110  CE2       10.8040   20.2760   54.0600 C.ar  104  PHE104     -0.0003
    111  CZ        10.1020   21.2960   53.5000 C.ar  104  PHE104     -0.0000
    112  N         16.7110   18.8380   57.1450 N.3   113  ASN113     -0.1225
    113  CA        15.4120   18.2890   56.7640 C.3   113  ASN113      0.1785
    114  C         14.2690   19.2900   56.8180 C.2   113  ASN113      0.2597
    115  O         13.1720   18.9740   56.3860 O.2   113  ASN113     -0.2718
    116  CB        15.0780   17.0600   57.6190 C.3   113  ASN113      0.1169
    117  CG        15.9360   15.8450   57.2710 C.2   113  ASN113      0.2627
    118  OD1       16.8220   15.9160   56.4370 O.2   113  ASN113     -0.2716
    119  ND2       15.6490   14.7120   57.9080 N.am  113  ASN113     -0.0877
    120  N         14.5110   20.4910   57.3330 N.am  114  TRP114     -0.1976
    121  CA        13.4740   21.5310   57.4000 C.3   114  TRP114      0.1640
    122  C         13.1540   22.2060   56.0570 C.2   114  TRP114      0.2290
    123  O         12.2430   23.0240   55.9830 O.2   114  TRP114     -0.2864
    124  CB        13.8020   22.6200   58.4530 C.3   114  TRP114      0.0576
    125  CG        15.1940   23.1740   58.4160 C.ar  114  TRP114      0.0006
    126  CD1       16.1800   22.9340   59.3350 C.ar  114  TRP114      0.0946
    127  CD2       15.7690   24.0660   57.4400 C.ar  114  TRP114      0.0152
    128  NE1       17.3190   23.6250   58.9960 N.ar  114  TRP114     -0.2442
    129  CE2       17.1060   24.3170   57.8360 C.ar  114  TRP114      0.0810
    130  CE3       15.2940   24.6800   56.2770 C.ar  114  TRP114      0.0012
    131  CZ2       17.9720   25.1380   57.0960 C.ar  114  TRP114      0.0191
    132  CZ3       16.1530   25.5070   55.5520 C.ar  114  TRP114      0.0001
    133  CH2       17.4780   25.7140   55.9570 C.ar  114  TRP114      0.0015
    134  N         10.5770   22.2070   46.8750 N.3   119  GLU119     -0.1245
    135  CA         9.5710   21.4710   47.6200 C.3   119  GLU119      0.1567
    136  C          8.4910   21.0310   46.6430 C.2   119  GLU119      0.2260
    137  O          8.0180   21.8230   45.8100 O.2   119  GLU119     -0.2867
    138  CB         8.9490   22.3610   48.6950 C.3   119  GLU119      0.0388
    139  CG         7.9330   21.6490   49.5710 C.3   119  GLU119      0.1160
    140  CD         7.3560   22.5550   50.6440 C.2   119  GLU119      0.3649
    141  OE1        7.5640   23.7860   50.5550 O.co2 119  GLU119     -0.2457
    142  OE2        6.7610   22.0210   51.5900 O.co2 119  GLU119     -0.2457
    143  N          4.7750   19.2670   46.8640 N.3   121  MET121     -0.1245
    144  CA         3.6580   18.8460   47.6940 C.3   121  MET121      0.1570
    145  C          2.5660   18.2490   46.8380 C.2   121  MET121      0.2261
    146  O          2.2860   18.7420   45.7350 O.2   121  MET121     -0.2867
    147  CB         3.0550   20.0030   48.4840 C.3   121  MET121      0.0387
    148  CG         4.0530   20.8580   49.2200 C.3   121  MET121      0.0595
    149  SD         3.2990   21.9600   50.4240 S.3   121  MET121     -0.1393
    150  CE         3.0940   20.9130   51.7180 C.3   121  MET121      0.0692
    151  N         -1.3070   17.6660   47.6100 N.3   123  TRP123     -0.1241
    152  CA        -2.3870   17.8690   48.5660 C.3   123  TRP123      0.1605
    153  C         -3.5510   16.9080   48.2660 C.2   123  TRP123      0.2264
    154  O         -3.9870   16.7620   47.1230 O.2   123  TRP123     -0.2867
    155  CB        -2.9150   19.3060   48.5080 C.3   123  TRP123      0.0550
    156  CG        -1.9790   20.3640   48.9920 C.ar  123  TRP123      0.0003
    157  CD1       -0.6190   20.3810   48.9000 C.ar  123  TRP123      0.0946
    158  CD2       -2.3520   21.5940   49.6110 C.ar  123  TRP123      0.0152
    159  NE1       -0.1210   21.5420   49.4470 N.ar  123  TRP123     -0.2442
    160  CE2       -1.1690   22.3050   49.8860 C.ar  123  TRP123      0.0810
    161  CE3       -3.5720   22.1740   49.9650 C.ar  123  TRP123      0.0012
    162  CZ2       -1.1700   23.5430   50.5040 C.ar  123  TRP123      0.0191
    163  CZ3       -3.5590   23.4040   50.5730 C.ar  123  TRP123      0.0001
    164  CH2       -2.3700   24.0740   50.8340 C.ar  123  TRP123      0.0015
    165  N         -7.9770   27.6340   52.7730 N.3   130  ILE130     -0.1231
    166  CA        -6.5470   27.8830   52.7040 C.3   130  ILE130      0.1692
    167  C         -6.0150   27.8390   51.2740 C.2   130  ILE130      0.2592
    168  O         -6.6500   27.2980   50.3740 O.2   130  ILE130     -0.2718
    169  CB        -5.7610   26.8850   53.5980 C.3   130  ILE130      0.0266
    170  CG1       -5.9970   25.4340   53.1540 C.3   130  ILE130      0.0019
    171  CG2       -6.1340   27.0820   55.0750 C.3   130  ILE130      0.0020
    172  CD1       -5.0230   24.4640   53.7960 C.3   130  ILE130      0.0001
    173  N         -4.8420   28.4300   51.0890 N.am  131  TYR131     -0.1963
    174  CA        -4.1290   28.4180   49.8150 C.3   131  TYR131      0.1756
    175  C         -2.7670   27.7770   50.0040 C.2   131  TYR131      0.2461
    176  O         -2.2020   27.8580   51.0870 O.2   131  TYR131     -0.2730
    177  CB        -3.9290   29.8630   49.3000 C.3   131  TYR131      0.0574
    178  CG        -5.2320   30.5470   48.9650 C.ar  131  TYR131     -0.0198
    179  CD1       -5.7700   30.4360   47.7040 C.ar  131  TYR131     -0.0009
    180  CD2       -5.9440   31.2400   49.9240 C.ar  131  TYR131     -0.0009
    181  CE1       -6.9650   31.0250   47.3880 C.ar  131  TYR131      0.0417
    182  CE2       -7.1460   31.8250   49.6190 C.ar  131  TYR131      0.0417
    183  CZ        -7.6560   31.6990   48.3520 C.ar  131  TYR131      0.1957
    184  OH        -8.8540   32.2860   48.0180 O.3   131  TYR131     -0.2866
    185  N         -2.2190   27.1680   48.9530 N.am  132  PRO132     -0.2716
    186  CA        -0.8180   26.7470   48.9620 C.3   132  PRO132      0.1536
    187  C          0.0590   27.9630   48.6950 C.2   132  PRO132      0.2598
    188  O         -0.4610   29.0740   48.4620 O.2   132  PRO132     -0.2715
    189  CB        -0.7450   25.7880   47.7840 C.3   132  PRO132      0.0310
    190  CG        -1.7120   26.3710   46.8020 C.3   132  PRO132      0.0237
    191  CD        -2.8410   26.9520   47.6300 C.3   132  PRO132      0.0939
    192  N          1.3660   27.7510   48.7090 N.am  133  ILE133     -0.1978
    193  CA         2.3220   28.7710   48.2940 C.3   133  ILE133      0.1596
    194  C          2.0970   29.1440   46.8400 C.2   133  ILE133      0.2287
    195  O          1.8760   28.2890   45.9910 O.2   133  ILE133     -0.2864
    196  CB         3.7780   28.2380   48.4840 C.3   133  ILE133      0.0276
    197  CG1        4.1190   28.1550   49.9670 C.3   133  ILE133      0.0022
    198  CG2        4.7840   29.0760   47.7190 C.3   133  ILE133      0.0022
    199  CD1        4.4360   29.5020   50.6220 C.3   133  ILE133      0.0001
    200  N          8.8660   30.0080   48.8060 N.3   154  ASN154     -0.1240
    201  CA         8.9410   30.1620   50.2520 C.3   154  ASN154      0.1653
    202  C         10.4000   30.4990   50.5320 C.2   154  ASN154      0.2266
    203  O         11.2530   29.6170   50.5440 O.2   154  ASN154     -0.2867
    204  CB         8.5050   28.8570   50.9190 C.3   154  ASN154      0.1155
    205  CG         8.6130   28.8860   52.4400 C.2   154  ASN154      0.2627
    206  OD1        8.2000   27.9380   53.1110 O.2   154  ASN154     -0.2716
    207  ND2        9.1520   29.9640   52.9830 N.am  154  ASN154     -0.0877
    208  N         13.2030   28.9820   48.2290 N.3   157  MET157     -0.1245
    209  CA        12.7890   27.6230   47.8710 C.3   157  MET157      0.1570
    210  C         11.5980   27.6660   46.9290 C.2   157  MET157      0.2261
    211  O         10.5830   28.2660   47.2590 O.2   157  MET157     -0.2867
    212  CB        12.4130   26.8500   49.1310 C.3   157  MET157      0.0387
    213  CG        12.0300   25.4170   48.8960 C.3   157  MET157      0.0595
    214  SD        11.7270   24.5070   50.4120 S.3   157  MET157     -0.1393
    215  CE        10.3500   25.4340   51.1430 C.3   157  MET157      0.0692
    216  N          8.4130   26.0990   45.3400 N.3   159  VAL159     -0.1245
    217  CA         7.3830   25.1820   45.8170 C.3   159  VAL159      0.1561
    218  C          6.3990   24.8600   44.6930 C.2   159  VAL159      0.2260
    219  O          5.7890   25.7530   44.1270 O.2   159  VAL159     -0.2867
    220  CB         6.6270   25.7380   47.0410 C.3   159  VAL159      0.0252
    221  CG1        5.6980   24.6900   47.6090 C.3   159  VAL159      0.0019
    222  CG2        7.6130   26.2400   48.1090 C.3   159  VAL159      0.0019
    223  N          7.5600   12.5000   52.8570 N.3   200  GLN200     -0.1245
    224  CA         6.6280   12.4980   53.9860 C.3   200  GLN200      0.1566
    225  C          5.1850   12.6340   53.5680 C.2   200  GLN200      0.2260
    226  O          4.8990   13.1480   52.4870 O.2   200  GLN200     -0.2867
    227  CB         6.9130   13.6960   54.8850 C.3   200  GLN200      0.0367
    228  CG         8.3190   13.7870   55.4510 C.3   200  GLN200      0.0905
    229  CD         8.6990   15.1670   55.9730 C.2   200  GLN200      0.2608
    230  OE1        8.0200   16.1660   55.7130 O.2   200  GLN200     -0.2717
    231  NE2        9.8200   15.2260   56.6790 N.am  200  GLN200     -0.0878
    232  N         -1.0160   19.7030   57.4080 N.3   204  GLU204     -0.1245
    233  CA        -0.7070   21.0680   57.8170 C.3   204  GLU204      0.1567
    234  C         -1.9320   21.6320   58.5100 C.2   204  GLU204      0.2260
    235  O         -3.0260   21.6530   57.9420 O.2   204  GLU204     -0.2867
    236  CB        -0.3380   21.9540   56.6260 C.3   204  GLU204      0.0388
    237  CG         0.9430   21.5120   55.9510 C.3   204  GLU204      0.1160
    238  CD         1.4860   22.5410   54.9950 C.2   204  GLU204      0.3649
    239  OE1        0.9680   22.6580   53.8710 O.co2 204  GLU204     -0.2457
    240  OE2        2.4490   23.2400   55.3720 O.co2 204  GLU204     -0.2457
    241  N         -3.7170   24.8010   60.5300 N.3   206  PHE206     -0.1241
    242  CA        -3.6840   26.2610   60.6740 C.3   206  PHE206      0.1605
    243  C         -4.5430   26.7120   61.8620 C.2   206  PHE206      0.2264
    244  O         -4.0380   27.2720   62.8270 O.2   206  PHE206     -0.2867
    245  CB        -4.1760   26.9680   59.4090 C.3   206  PHE206      0.0534
    246  CG        -3.3380   26.7550   58.1720 C.ar  206  PHE206     -0.0203
    247  CD1       -3.3300   25.5360   57.5170 C.ar  206  PHE206     -0.0042
    248  CD2       -2.6500   27.8180   57.6040 C.ar  206  PHE206     -0.0042
    249  CE1       -2.6120   25.3610   56.3450 C.ar  206  PHE206     -0.0003
    250  CE2       -1.9230   27.6590   56.4340 C.ar  206  PHE206     -0.0003
    251  CZ        -1.9110   26.4230   55.7960 C.ar  206  PHE206     -0.0000
@<TRIPOS>BOND
     1   219   218    2
     2   218   217    1
     3   216   217    1
     4   146   145    2
     5   137   136    2
     6   217   220    1
     7   195   194    2
     8   136   135    1
     9   190   191    1
    10   190   189    1
    11   145   144    1
    12   194   193    1
    13   143   144    1
    14   134   135    1
    15   210   211    2
    16   210   209    1
    17   220   221    1
    18   220   222    1
    19   154   153    2
    20   181   179   ar
    21   181   183   ar
    22   151   152    1
    23   135   138    1
    24   191   185    1
    25   144   147    1
    26   179   178   ar
    27   198   196    1
    28   189   186    1
    29   209   208    1
    30   209   212    1
    31   184   183    1
    32   153   152    1
    33   193   196    1
    34   193   192    1
    35   183   182   ar
    36   188   187    2
    37   196   197    1
    38   147   148    1
    39   155   152    1
    40   155   156    1
    41   138   139    1
    42   187   192   am
    43   187   186    1
    44   200   201    1
    45   213   212    1
    46   213   214    1
    47   157   156   ar
    48   157   159   ar
    49   185   186    1
    50   185   175   am
    51   178   177    1
    52   178   180   ar
    53   156   158   ar
    54   103   104    2
    55   103   102    1
    56   148   149    1
    57   177   174    1
    58   159   160   ar
    59   139   140    1
    60   158   160   ar
    61   158   161   ar
    62   182   180   ar
    63   102   101    1
    64   102   105    1
    65   174   175    1
    66   174   173    1
    67   160   162   ar
    68   161   163   ar
    69   197   199    1
    70   175   176    2
    71   201   202    1
    72   201   204    1
    73   168   167    2
    74   214   215    1
    75   149   150    1
    76   162   164   ar
    77   202   203    2
    78   141   140   ar
    79   163   164   ar
    80   140   142   ar
    81   204   205    1
    82    95    94    1
    83    95    96    2
    84   173   167   am
    85   105   106    1
    86   167   166    1
    87    94    93    1
    88    94    97    1
    89   107   106   ar
    90   107   109   ar
    91    99    98   ar
    92   106   108   ar
    93   109   111   ar
    94   205   207   am
    95   205   206    2
    96   226   225    2
    97    98    97    1
    98    98   100   ar
    99   166   165    1
   100   166   169    1
   101   223   224    1
   102   170   169    1
   103   170   172    1
   104   108   110   ar
   105   111   110   ar
   106   225   224    1
   107   169   171    1
   108   239   238   ar
   109   224   227    1
   110    69    68    1
   111   227   228    1
   112   238   240   ar
   113   238   237    1
   114    50    48   ar
   115   228   229    1
   116   132   133   ar
   117   132   130   ar
   118    68    66   ar
   119    68    67   ar
   120    49    48   ar
   121    91    90    1
   122   230   229    2
   123    92    90    1
   124   251   249   ar
   125   251   250   ar
   126    48    47    1
   127    66    64   ar
   128   237   236    1
   129   133   131   ar
   130   229   231   am
   131   123   122    2
   132   122   121    1
   133    67    65   ar
   134   130   127   ar
   135    90    89    2
   136   249   247   ar
   137   115   114    2
   138   250   248   ar
   139   118   117    2
   140   236   233    1
   141    47    44    1
   142   113   114    1
   143   113   112    1
   144   113   116    1
   145   114   120   am
   146    46    45    2
   147    64    63   ar
   148   131   129   ar
   149    65    63   ar
   150    57    55    1
   151   117   116    1
   152   117   119   am
   153   120   121    1
   154    44    45    1
   155    44    43    1
   156   121   124    1
   157   232   233    1
   158   127   129   ar
   159   127   125   ar
   160   247   246   ar
   161    89    88    1
   162   248   246   ar
   163    63    62    1
   164   233   234    1
   165   129   128   ar
   166   235   234    2
   167    87    88    1
   168    87    86    1
   169    83    84    1
   170    83    86    1
   171    83    82    1
   172   246   245    1
   173    84    85    2
   174   125   124    1
   175   125   126   ar
   176    74    75    1
   177    74    71    1
   178    40    42   ar
   179    40    38   ar
   180    42    41   ar
   181    55    56    1
   182    55    52    1
   183    62    59    1
   184    75    76   ar
   185    75    77   ar
   186   128   126   ar
   187    76    78   ar
   188    51    52    1
   189    77    79   ar
   190   245   242    1
   191    38    37   ar
   192    38    36   ar
   193    78    80   ar
   194    71    72    1
   195    71    70    1
   196    37    35   ar
   197    52    53    1
   198    79    80   ar
   199    41    39   ar
   200    80    81    1
   201    72    73    2
   202    59    60    1
   203    59    58    1
   204    61    60    2
   205    36    39   ar
   206    36    34   ar
   207   241   242    1
   208    27    26    2
   209    35    34   ar
   210   242   243    1
   211    53    54    2
   212    34    33    1
   213    26    28   am
   214    26    25    1
   215   243   244    2
   216    33    30    1
   217    25    22    1
   218    20    18    1
   219    24    23    2
   220    17    18    1
   221    17    14    1
   222    13    14    1
   223    16    15    2
   224    30    31    1
   225    30    29    1
   226    31    32    2
   227    22    23    1
   228    22    21    1
   229    18    19    1
   230    14    15    1
   231    12    11    1
   232     9    11   ar
   233     9     7   ar
   234    11    10   ar
   235     7     6   ar
   236    10     8   ar
   237     6     8   ar
   238     6     5    1
   239     5     2    1
   240     2     3    1
   241     2     1    1
   242     4     3    2
