@<TRIPOS>MOLECULE
tmp/1w2yA00.pdb
 182 171 0 0 0
SMALL
GASTEIGER

@<TRIPOS>ATOM
      1  N         63.7610   48.1760   13.9110 N.3    14  GLN14      -0.1245
      2  CA        62.6300   48.8530   14.6080 C.3    14  GLN14       0.1566
      3  C         62.4870   48.2840   16.0160 C.2    14  GLN14       0.2260
      4  O         62.2810   49.0270   16.9920 O.2    14  GLN14      -0.2867
      5  CB        61.3320   48.7080   13.8550 C.3    14  GLN14       0.0367
      6  CG        60.2550   49.6310   14.4570 C.3    14  GLN14       0.0905
      7  CD        60.6030   51.1170   14.3010 C.2    14  GLN14       0.2608
      8  OE1       60.9820   51.5470   13.1770 O.2    14  GLN14      -0.2717
      9  NE2       60.4440   51.9230   15.4060 N.am   14  GLN14      -0.0878
     10  N         65.3550   49.6380   18.1610 N.3    17  LEU17      -0.1231
     11  CA        65.1380   51.0540   18.4810 C.3    17  LEU17       0.1693
     12  C         64.0110   51.2170   19.5210 C.2    17  LEU17       0.2592
     13  O         64.1360   51.9960   20.4490 O.2    17  LEU17      -0.2718
     14  CB        64.7380   51.8040   17.2060 C.3    17  LEU17       0.0284
     15  CG        64.3010   53.2410   17.3980 C.3    17  LEU17       0.0019
     16  CD1       65.3400   54.1510   17.9890 C.3    17  LEU17       0.0001
     17  CD2       63.8130   53.7500   16.0740 C.3    17  LEU17       0.0001
     18  N         62.9070   50.4740   19.3570 N.am   18  ASN18      -0.1974
     19  CA        61.8020   50.5610   20.3090 C.3    18  ASN18       0.1688
     20  C         62.2260   50.0440   21.6860 C.2    18  ASN18       0.2292
     21  O         61.8410   50.5980   22.7260 O.2    18  ASN18      -0.2864
     22  CB        60.5600   49.8320   19.8200 C.3    18  ASN18       0.1181
     23  CG        59.8520   50.5780   18.6850 C.2    18  ASN18       0.2629
     24  OD1       60.2370   51.6940   18.3450 O.2    18  ASN18      -0.2716
     25  ND2       58.7670   49.9890   18.1360 N.am   18  ASN18      -0.0877
     26  N         64.4510   52.7790   23.1620 N.3    21  THR21      -0.1203
     27  CA        63.6670   54.0110   23.4400 C.3    21  THR21       0.1994
     28  C         62.7030   53.8110   24.6050 C.2    21  THR21       0.2617
     29  O         62.5640   54.6740   25.4940 O.2    21  THR21      -0.2717
     30  CB        62.8820   54.4260   22.1730 C.3    21  THR21       0.1784
     31  OG1       63.7840   54.7330   21.0650 O.3    21  THR21      -0.2211
     32  CG2       62.0240   55.7240   22.4030 C.3    21  THR21       0.0376
     33  N         61.9740   52.6960   24.5710 N.am   22  ASN22      -0.1974
     34  CA        60.8120   52.4840   25.4370 C.3    22  ASN22       0.1688
     35  C         60.9640   51.4620   26.5650 C.2    22  ASN22       0.2292
     36  O         60.0770   51.3170   27.4330 O.2    22  ASN22      -0.2864
     37  CB        59.6920   51.9980   24.5620 C.3    22  ASN22       0.1181
     38  CG        59.3730   52.9860   23.4690 C.2    22  ASN22       0.2629
     39  OD1       59.2040   54.1800   23.7300 O.2    22  ASN22      -0.2716
     40  ND2       59.3170   52.4930   22.2250 N.am   22  ASN22      -0.0877
     41  N         50.4920   53.6880   18.6010 N.3    39  TRP39      -0.1241
     42  CA        51.1510   53.7390   17.3000 C.3    39  TRP39       0.1605
     43  C         50.2430   54.3730   16.2310 C.2    39  TRP39       0.2264
     44  O         50.7270   55.0520   15.3170 O.2    39  TRP39      -0.2867
     45  CB        51.5530   52.3660   16.8480 C.3    39  TRP39       0.0550
     46  CG        52.5340   51.7340   17.7840 C.ar   39  TRP39       0.0003
     47  CD1       52.3520   50.5800   18.4380 C.ar   39  TRP39       0.0946
     48  CD2       53.8180   52.2250   18.1720 C.ar   39  TRP39       0.0152
     49  NE1       53.4430   50.2730   19.2200 N.ar   39  TRP39      -0.2442
     50  CE2       54.3690   51.2680   19.0780 C.ar   39  TRP39       0.0810
     51  CE3       54.5830   53.3430   17.8390 C.ar   39  TRP39       0.0012
     52  CZ2       55.6460   51.3980   19.6240 C.ar   39  TRP39       0.0191
     53  CZ3       55.8560   53.5330   18.4370 C.ar   39  TRP39       0.0001
     54  CH2       56.3760   52.5330   19.3100 C.ar   39  TRP39       0.0015
     55  N         50.5890   57.9930   16.5400 N.3    42  CYS42      -0.1235
     56  CA        51.9000   58.3480   15.9610 C.3    42  CYS42       0.1677
     57  C         51.7880   58.5030   14.4320 C.2    42  CYS42       0.2270
     58  O         52.3530   59.4230   13.8260 O.2    42  CYS42      -0.2867
     59  CB        52.9280   57.2840   16.3480 C.3    42  CYS42       0.0956
     60  SG        53.3680   57.3230   18.0920 S.3    42  CYS42      -0.0801
     61  N         52.1870   61.8710   11.9910 N.3    46  GLU46      -0.1245
     62  CA        53.1700   61.9970   10.8850 C.3    46  GLU46       0.1567
     63  C         52.4370   62.2730    9.5800 C.2    46  GLU46       0.2260
     64  O         52.9800   62.9310    8.7040 O.2    46  GLU46      -0.2867
     65  CB        54.0440   60.7630   10.7610 C.3    46  GLU46       0.0388
     66  CG        54.9310   60.4870   11.9890 C.3    46  GLU46       0.1160
     67  CD        55.9090   61.6000   12.2660 C.2    46  GLU46       0.3649
     68  OE1       56.4560   62.1820   11.2630 O.co2  46  GLU46      -0.2457
     69  OE2       56.1750   61.8590   13.4600 O.co2  46  GLU46      -0.2457
     70  N         52.1910   65.8780    9.3200 N.3    49  GLU49      -0.1245
     71  CA        53.4720   66.4140    8.8640 C.3    49  GLU49       0.1567
     72  C         53.6560   66.2220    7.3750 C.2    49  GLU49       0.2260
     73  O         54.1660   67.1060    6.7140 O.2    49  GLU49      -0.2867
     74  CB        54.6260   65.7230    9.5590 C.3    49  GLU49       0.0388
     75  CG        54.7230   66.0740   11.0470 C.3    49  GLU49       0.1160
     76  CD        55.8480   65.2880   11.6890 C.2    49  GLU49       0.3649
     77  OE1       55.5980   64.7110   12.7570 O.co2  49  GLU49      -0.2457
     78  OE2       56.9470   65.2040   11.0760 O.co2  49  GLU49      -0.2457
     79  N         58.8040   62.0700    5.8680 N.3    74  GLU74      -0.1245
     80  CA        57.5720   61.7670    6.5870 C.3    74  GLU74       0.1567
     81  C         57.0620   60.3670    6.2200 C.2    74  GLU74       0.2260
     82  O         56.4970   59.6530    7.0680 O.2    74  GLU74      -0.2867
     83  CB        56.5250   62.8360    6.4070 C.3    74  GLU74       0.0388
     84  CG        56.9890   64.2280    6.6960 C.3    74  GLU74       0.1160
     85  CD        57.5650   64.4570    8.0960 C.2    74  GLU74       0.3649
     86  OE1       57.5400   63.5360    8.9530 O.co2  74  GLU74      -0.2457
     87  OE2       58.0040   65.6140    8.3520 O.co2  74  GLU74      -0.2457
     88  N         59.0250   58.2280    8.4370 N.3    77  ASP77      -0.1239
     89  CA        58.5290   58.2870    9.8230 C.3    77  ASP77       0.1674
     90  C         57.2640   57.4240    9.9980 C.2    77  ASP77       0.2266
     91  O         57.1200   56.6500   10.9470 O.2    77  ASP77      -0.2867
     92  CB        58.2310   59.7300   10.2350 C.3    77  ASP77       0.1410
     93  CG        59.4570   60.5610   10.4740 C.2    77  ASP77       0.3668
     94  OD1       60.5590   59.9730   10.5690 O.co2  77  ASP77      -0.2456
     95  OD2       59.4080   61.8140   10.5590 O.co2  77  ASP77      -0.2456
     96  N         58.3020   53.7580   10.2790 N.3    80  HIS80      -0.1226
     97  CA        58.7870   53.3810   11.6110 C.3    80  HIS80       0.1752
     98  C         57.5890   52.9570   12.4850 C.2    80  HIS80       0.2596
     99  O         57.6290   51.9450   13.2160 O.2    80  HIS80      -0.2718
    100  CB        59.5070   54.5240   12.3360 C.3    80  HIS80       0.0759
    101  CG        60.9510   54.7390   11.9610 C.ar   80  HIS80       0.0818
    102  ND1       61.3330   55.2830   10.7460 N.ar   80  HIS80      -0.2268
    103  CD2       62.0980   54.5490   12.6770 C.ar   80  HIS80       0.1154
    104  CE1       62.6520   55.4480   10.7480 C.ar   80  HIS80       0.1986
    105  NE2       63.1480   54.9790   11.8940 N.ar   80  HIS80      -0.2212
    106  N         56.5040   53.7390   12.3850 N.am   81  PHE81      -0.1976
    107  CA        55.3470   53.4640   13.2060 C.3    81  PHE81       0.1639
    108  C         54.5070   52.2950   12.7200 C.2    81  PHE81       0.2290
    109  O         53.9290   51.5310   13.5150 O.2    81  PHE81      -0.2864
    110  CB        54.5520   54.7400   13.3980 C.3    81  PHE81       0.0560
    111  CG        55.2870   55.8240   14.1590 C.ar   81  PHE81      -0.0200
    112  CD1       55.8430   55.5370   15.4080 C.ar   81  PHE81      -0.0042
    113  CD2       55.4540   57.1200   13.6460 C.ar   81  PHE81      -0.0042
    114  CE1       56.4360   56.5040   16.1750 C.ar   81  PHE81      -0.0003
    115  CE2       56.0670   58.0810   14.4140 C.ar   81  PHE81      -0.0003
    116  CZ        56.5780   57.7560   15.6620 C.ar   81  PHE81      -0.0000
    117  N         67.2240   57.5080    9.1180 N.3   172  LYS172     -0.1245
    118  CA        66.3260   58.0550   10.1420 C.3   172  LYS172      0.1561
    119  C         66.3650   57.2040   11.4360 C.2   172  LYS172      0.2260
    120  O         66.3020   57.7580   12.5200 O.2   172  LYS172     -0.2867
    121  CB        64.9080   58.2300    9.5990 C.3   172  LYS172      0.0271
    122  CG        63.9230   58.9540   10.5870 C.3   172  LYS172      0.0035
    123  CD        64.4850   60.2150   11.2480 C.3   172  LYS172      0.0206
    124  CE        63.4900   61.0100   12.1100 C.3   172  LYS172      0.1093
    125  NZ        62.4940   61.7260   11.3130 N.3   172  LYS172     -0.1314
    126  N         67.0660   58.7060   15.0270 N.3   176  ASN176     -0.1240
    127  CA        66.1850   58.4120   16.1420 C.3   176  ASN176      0.1653
    128  C         66.9270   57.9590   17.4090 C.2   176  ASN176      0.2266
    129  O         66.6020   58.3800   18.5300 O.2   176  ASN176     -0.2867
    130  CB        65.1170   57.3900   15.7330 C.3   176  ASN176      0.1155
    131  CG        64.0300   58.0050   14.8890 C.2   176  ASN176      0.2627
    132  OD1       63.6780   59.1720   15.0960 O.2   176  ASN176     -0.2716
    133  ND2       63.4670   57.2190   13.9290 N.am  176  ASN176     -0.0877
    134  N         68.9240   61.1020   18.7080 N.3   179  ARG179     -0.1231
    135  CA        68.0300   61.9550   19.4950 C.3   179  ARG179      0.1694
    136  C         67.8910   61.4430   20.9300 C.2   179  ARG179      0.2591
    137  O         67.9790   62.1910   21.8790 O.2   179  ARG179     -0.2718
    138  CB        66.6370   61.9650   18.8520 C.3   179  ARG179      0.0321
    139  CG        66.5310   62.8440   17.6300 C.3   179  ARG179      0.0489
    140  CD        65.1900   62.6550   16.9430 C.3   179  ARG179      0.2205
    141  NE        64.9340   63.5650   15.8280 N.pl3 179  ARG179     -0.0865
    142  CZ        63.8760   63.4560   15.0500 C.cat 179  ARG179      0.5346
    143  NH1       62.9330   62.5300   15.2910 N.pl3 179  ARG179      0.1354
    144  NH2       63.7240   64.2910   14.0350 N.pl3 179  ARG179      0.1354
    145  N         67.6150   60.1610   21.0820 N.am  180  GLN180     -0.1979
    146  CA        67.3750   59.6230   22.4160 C.3   180  GLN180      0.1601
    147  C         68.6500   59.7310   23.2360 C.2   180  GLN180      0.2287
    148  O         68.6100   60.0170   24.4390 O.2   180  GLN180     -0.2864
    149  CB        66.9830   58.1590   22.3390 C.3   180  GLN180      0.0394
    150  CG        65.6000   57.9130   21.8580 C.3   180  GLN180      0.0908
    151  CD        64.5470   58.6380   22.7090 C.2   180  GLN180      0.2608
    152  OE1       64.6000   58.5600   23.9230 O.2   180  GLN180     -0.2717
    153  NE2       63.6340   59.3560   22.0660 N.am  180  GLN180     -0.0878
    154  N         66.4350   63.8490   23.9680 N.3   184  TYR184     -0.1241
    155  CA        65.1080   63.9820   23.3830 C.3   184  TYR184      0.1605
    156  C         63.9790   63.8720   24.4360 C.2   184  TYR184      0.2264
    157  O         62.9800   64.6180   24.3740 O.2   184  TYR184     -0.2867
    158  CB        64.8720   62.9500   22.2540 C.3   184  TYR184      0.0534
    159  CG        64.0050   63.4550   21.1090 C.ar  184  TYR184     -0.0201
    160  CD1       64.3860   64.5580   20.3570 C.ar  184  TYR184     -0.0009
    161  CD2       62.8400   62.8120   20.7780 C.ar  184  TYR184     -0.0009
    162  CE1       63.6450   64.9840   19.2950 C.ar  184  TYR184      0.0417
    163  CE2       62.0740   63.2380   19.7170 C.ar  184  TYR184      0.0417
    164  CZ        62.4650   64.3440   18.9810 C.ar  184  TYR184      0.1957
    165  OH        61.6670   64.8110   17.9270 O.3   184  TYR184     -0.2866
    166  N         66.6980   70.4510   18.2530 N.3   191  LYS191     -0.1245
    167  CA        66.2230   69.8610   16.9970 C.3   191  LYS191      0.1561
    168  C         66.6430   70.6720   15.7590 C.2   191  LYS191      0.2260
    169  O         66.6640   70.1430   14.6410 O.2   191  LYS191     -0.2867
    170  CB        64.7130   69.6410   17.0240 C.3   191  LYS191      0.0271
    171  CG        64.2600   68.5560   16.0400 C.3   191  LYS191      0.0035
    172  CD        62.8260   68.2490   16.1650 C.3   191  LYS191      0.0206
    173  CE        62.3780   67.1710   15.1660 C.3   191  LYS191      0.1093
    174  NZ        61.1290   67.5430   14.5230 N.3   191  LYS191     -0.1314
    175  N         66.3840   66.5710   10.5540 N.3   199  ASN199     -0.1240
    176  CA        66.0010   65.7990    9.3770 C.3   199  ASN199      0.1653
    177  C         66.6670   66.3040    8.1110 C.2   199  ASN199      0.2266
    178  O         66.9930   65.4870    7.2290 O.2   199  ASN199     -0.2867
    179  CB        64.4870   65.8300    9.1750 C.3   199  ASN199      0.1155
    180  CG        63.7580   64.9900   10.2180 C.2   199  ASN199      0.2627
    181  OD1       64.1250   63.8200   10.3950 O.2   199  ASN199     -0.2716
    182  ND2       62.7690   65.5690   10.9350 N.am  199  ASN199     -0.0877
@<TRIPOS>BOND
     1    79    80    1
     2    81    80    1
     3    81    82    2
     4    83    80    1
     5    83    84    1
     6    84    85    1
     7    73    72    2
     8   178   177    2
     9    72    71    1
    10    85    87   ar
    11    85    86   ar
    12   177   176    1
    13    88    89    1
    14    64    63    2
    15    71    70    1
    16    71    74    1
    17   117   118    1
    18   179   176    1
    19   179   180    1
    20   176   175    1
    21    74    75    1
    22    63    62    1
    23   121   118    1
    24   121   122    1
    25    89    90    1
    26    89    92    1
    27    90    91    2
    28   118   119    1
    29   180   181    2
    30   180   182   am
    31    92    93    1
    32    96    97    1
    33    93    95   ar
    34    93    94   ar
    35   122   123    1
    36   102   104   ar
    37   102   101   ar
    38   104   105   ar
    39    65    62    1
    40    65    66    1
    41    62    61    1
    42    75    76    1
    43    78    76   ar
    44   123   124    1
    45    68    67   ar
    46   125   124    1
    47   119   120    2
    48    97   100    1
    49    97    98    1
    50    76    77   ar
    51   105   103   ar
    52   101   100    1
    53   101   103   ar
    54    66    67    1
    55    67    69   ar
    56   106    98   am
    57   106   107    1
    58    98    99    2
    59   108   107    1
    60   108   109    2
    61     8     7    2
    62   107   110    1
    63   110   111    1
    64   113   111   ar
    65   113   115   ar
    66    58    57    2
    67     5     6    1
    68     5     2    1
    69     1     2    1
    70   133   131   am
    71   144   142    1
    72   111   112   ar
    73     7     6    1
    74     7     9   am
    75   115   116   ar
    76    57    56    1
    77   174   173    1
    78     2     3    1
    79   169   168    2
    80   131   132    2
    81   131   130    1
    82   126   127    1
    83   142   143    1
    84   142   141    2
    85   173   172    1
    86    44    43    2
    87   112   114   ar
    88   116   114   ar
    89   130   127    1
    90   168   167    1
    91   141   140    1
    92    56    59    1
    93    56    55    1
    94     3     4    2
    95   171   172    1
    96   171   170    1
    97    17    15    1
    98   127   128    1
    99    43    42    1
   100    59    60    1
   101    45    42    1
   102    45    46    1
   103   140   139    1
   104   167   170    1
   105   167   166    1
   106    14    15    1
   107    14    11    1
   108    42    41    1
   109    15    16    1
   110   128   129    2
   111   139   138    1
   112    46    48   ar
   113    46    47   ar
   114    51    48   ar
   115    51    53   ar
   116   165   164    1
   117    25    23   am
   118    10    11    1
   119    48    50   ar
   120    24    23    2
   121    53    54   ar
   122    47    49   ar
   123    11    12    1
   124    23    22    1
   125   134   135    1
   126   138   135    1
   127   164   162   ar
   128   164   163   ar
   129    50    49   ar
   130    50    52   ar
   131   162   160   ar
   132    54    52   ar
   133    18    12   am
   134    18    19    1
   135   135   136    1
   136    12    13    2
   137   163   161   ar
   138    22    19    1
   139    19    20    1
   140   160   159   ar
   141   161   159   ar
   142   136   145   am
   143   136   137    2
   144    31    30    1
   145   145   146    1
   146   159   158    1
   147    20    21    2
   148   150   149    1
   149   150   151    1
   150   153   151   am
   151    30    32    1
   152    30    27    1
   153    40    38   am
   154   158   155    1
   155   149   146    1
   156   146   147    1
   157   151   152    2
   158    26    27    1
   159   147   148    2
   160   155   154    1
   161   155   156    1
   162    27    28    1
   163    38    39    2
   164    38    37    1
   165   157   156    2
   166    37    34    1
   167    33    28   am
   168    33    34    1
   169    28    29    2
   170    34    35    1
   171    35    36    2
