@<TRIPOS>MOLECULE
tmp/1w31A00.pdb
 123 118 0 0 0
SMALL
GASTEIGER

@<TRIPOS>ATOM
      1  N         15.8670   32.2050   21.8780 N.3    89  PHE89      -0.1241
      2  CA        17.1020   31.5660   22.3070 C.3    89  PHE89       0.1605
      3  C         17.7840   32.4380   23.3760 C.2    89  PHE89       0.2264
      4  O         18.0880   33.5980   23.0980 O.2    89  PHE89      -0.2867
      5  CB        18.0550   31.3800   21.1260 C.3    89  PHE89       0.0534
      6  CG        17.6440   30.3050   20.1620 C.ar   89  PHE89      -0.0203
      7  CD1       16.9790   30.6200   18.9900 C.ar   89  PHE89      -0.0042
      8  CD2       17.9470   28.9770   20.4110 C.ar   89  PHE89      -0.0042
      9  CE1       16.6110   29.6350   18.0940 C.ar   89  PHE89      -0.0003
     10  CE2       17.5920   27.9830   19.5160 C.ar   89  PHE89      -0.0003
     11  CZ        16.9160   28.3130   18.3560 C.ar   89  PHE89      -0.0000
     12  N         12.9690   27.7620   22.1690 N.3   131  ASP131     -0.1239
     13  CA        13.7670   26.5220   22.0360 C.3   131  ASP131      0.1674
     14  C         13.9530   25.9260   23.4400 C.2   131  ASP131      0.2266
     15  O         14.1410   26.6800   24.3980 O.2   131  ASP131     -0.2867
     16  CB        15.1490   26.8670   21.4630 C.3   131  ASP131      0.1410
     17  CG        16.0560   25.6430   21.4720 C.2   131  ASP131      0.3668
     18  OD1       15.7660   24.7070   20.6990 O.co2 131  ASP131     -0.2456
     19  OD2       17.0360   25.6230   22.2410 O.co2 131  ASP131     -0.2456
     20  N         15.1600   20.9850   21.5550 N.3   179  SER179     -0.1217
     21  CA        16.2300   20.7040   20.6070 C.3   179  SER179      0.1889
     22  C         17.3270   19.8460   21.2230 C.2   179  SER179      0.2288
     23  O         18.4380   19.7790   20.6900 O.2   179  SER179     -0.2866
     24  CB        16.8370   22.0260   20.1050 C.3   179  SER179      0.2089
     25  OG        17.4760   22.6880   21.1890 O.3   179  SER179     -0.2183
     26  N         12.1930   18.9160   17.7560 N.3   207  TYR207     -0.1241
     27  CA        13.2600   18.7520   16.7330 C.3   207  TYR207      0.1605
     28  C         13.4680   17.2090   16.6200 C.2   207  TYR207      0.2264
     29  O         14.4130   16.6810   17.1810 O.2   207  TYR207     -0.2867
     30  CB        14.5590   19.3600   17.2500 C.3   207  TYR207      0.0534
     31  CG        14.6480   20.8570   17.3220 C.ar  207  TYR207     -0.0201
     32  CD1       14.0430   21.5620   18.3560 C.ar  207  TYR207     -0.0009
     33  CD2       15.4280   21.5710   16.4190 C.ar  207  TYR207     -0.0009
     34  CE1       14.1760   22.9300   18.4700 C.ar  207  TYR207      0.0417
     35  CE2       15.5710   22.9410   16.5290 C.ar  207  TYR207      0.0417
     36  CZ        14.9380   23.6160   17.5490 C.ar  207  TYR207      0.1957
     37  OH        15.0430   24.9870   17.6480 O.3   207  TYR207     -0.2866
     38  N         17.1730   15.9210   14.0990 N.3   210  LYS210     -0.1245
     39  CA        18.3180   16.8170   14.2680 C.3   210  LYS210      0.1561
     40  C         19.6170   16.0350   14.0370 C.2   210  LYS210      0.2260
     41  O         19.9880   15.1950   14.8560 O.2   210  LYS210     -0.2867
     42  CB        18.3170   17.4260   15.6670 C.3   210  LYS210      0.0271
     43  CG        19.2550   18.6120   15.8320 C.3   210  LYS210      0.0035
     44  CD        19.0960   19.2430   17.2070 C.3   210  LYS210      0.0206
     45  CE        20.3760   19.9250   17.6580 C.3   210  LYS210      0.1093
     46  NZ        20.1260   21.3130   18.1360 N.3   210  LYS210     -0.1314
     47  N         27.3400   22.2110    9.8890 N.3   215  LEU215     -0.1231
     48  CA        26.5900   23.4180    9.5730 C.3   215  LEU215      0.1693
     49  C         26.0760   24.1460   10.7910 C.2   215  LEU215      0.2592
     50  O         25.2250   25.0390   10.6620 O.2   215  LEU215     -0.2718
     51  CB        25.4510   23.1030    8.6030 C.3   215  LEU215      0.0284
     52  CG        25.8680   22.5020    7.2590 C.3   215  LEU215      0.0019
     53  CD1       24.8390   21.4850    6.7870 C.3   215  LEU215      0.0001
     54  CD2       26.0900   23.5890    6.2210 C.3   215  LEU215      0.0001
     55  N         26.5540   23.8180   11.9870 N.am  216  TYR216     -0.1976
     56  CA        26.0740   24.5040   13.1870 C.3   216  TYR216      0.1639
     57  C         27.0190   25.6250   13.5990 C.2   216  TYR216      0.2290
     58  O         26.8730   26.2010   14.6770 O.2   216  TYR216     -0.2864
     59  CB        25.9200   23.4980   14.3330 C.3   216  TYR216      0.0560
     60  CG        24.7760   22.5320   14.1120 C.ar  216  TYR216     -0.0198
     61  CD1       23.5250   23.0040   13.7380 C.ar  216  TYR216     -0.0009
     62  CD2       24.9530   21.1610   14.2290 C.ar  216  TYR216     -0.0009
     63  CE1       22.4700   22.1380   13.5330 C.ar  216  TYR216      0.0417
     64  CE2       23.9090   20.2830   13.9870 C.ar  216  TYR216      0.0417
     65  CZ        22.6730   20.7780   13.6400 C.ar  216  TYR216      0.1957
     66  OH        21.6060   19.9290   13.4500 O.3   216  TYR216     -0.2866
     67  N         25.9930   29.5450   14.8730 N.3   219  PHE219     -0.1241
     68  CA        25.1980   29.4400   16.0850 C.3   219  PHE219      0.1605
     69  C         26.0700   29.3110   17.3270 C.2   219  PHE219      0.2264
     70  O         25.7210   29.8190   18.3940 O.2   219  PHE219     -0.2867
     71  CB        24.2310   28.2560   15.9980 C.3   219  PHE219      0.0534
     72  CG        23.2550   28.2170   17.1430 C.ar  219  PHE219     -0.0203
     73  CD1       22.0650   28.9180   17.0710 C.ar  219  PHE219     -0.0042
     74  CD2       23.5590   27.5290   18.3030 C.ar  219  PHE219     -0.0042
     75  CE1       21.1720   28.8980   18.1250 C.ar  219  PHE219     -0.0003
     76  CE2       22.6720   27.5010   19.3620 C.ar  219  PHE219     -0.0003
     77  CZ        21.4810   28.1970   19.2760 C.ar  219  PHE219     -0.0000
     78  N         16.2610   19.5280   10.9390 N.3   263  LYS263     -0.1245
     79  CA        17.4310   20.4210   10.9160 C.3   263  LYS263      0.1561
     80  C         18.7150   19.6190   10.8780 C.2   263  LYS263      0.2260
     81  O         18.9050   18.6810   11.6540 O.2   263  LYS263     -0.2867
     82  CB        17.3770   21.3370   12.1350 C.3   263  LYS263      0.0271
     83  CG        18.6340   21.9280   12.6920 C.3   263  LYS263      0.0035
     84  CD        18.3730   22.5130   14.0760 C.3   263  LYS263      0.0206
     85  CE        19.3750   23.5960   14.4310 C.3   263  LYS263      0.1093
     86  NZ        19.4530   23.7910   15.9050 N.3   263  LYS263     -0.1314
     87  N         14.4380   23.9390    9.3820 N.3   287  TYR287     -0.1241
     88  CA        15.2990   24.8900   10.0710 C.3   287  TYR287      0.1605
     89  C         16.5450   25.2110    9.2570 C.2   287  TYR287      0.2264
     90  O         17.4770   24.4130    9.1790 O.2   287  TYR287     -0.2867
     91  CB        15.6870   24.3830   11.4570 C.3   287  TYR287      0.0534
     92  CG        16.2520   25.4550   12.3640 C.ar  287  TYR287     -0.0201
     93  CD1       15.8900   25.5150   13.7040 C.ar  287  TYR287     -0.0009
     94  CD2       17.1310   26.4170   11.8870 C.ar  287  TYR287     -0.0009
     95  CE1       16.3860   26.4980   14.5400 C.ar  287  TYR287      0.0417
     96  CE2       17.6350   27.4040   12.7170 C.ar  287  TYR287      0.0417
     97  CZ        17.2610   27.4400   14.0430 C.ar  287  TYR287      0.1957
     98  OH        17.7530   28.4160   14.8820 O.3   287  TYR287     -0.2866
     99  N         19.6220   26.3510    9.2490 N.3   289  VAL289     -0.1231
    100  CA        20.6760   26.6020   10.1920 C.3   289  VAL289      0.1692
    101  C         21.6730   27.6520    9.7670 C.2   289  VAL289      0.2592
    102  O         21.8160   27.9920    8.5940 O.2   289  VAL289     -0.2718
    103  CB        21.3860   25.3350   10.6700 C.3   289  VAL289      0.0266
    104  CG1       20.3530   24.3530   11.2150 C.3   289  VAL289      0.0020
    105  CG2       22.1980   24.7190    9.5450 C.3   289  VAL289      0.0020
    106  N         22.3780   28.1710   10.7660 N.am  290  SER290     -0.1952
    107  CA        23.3930   29.1940   10.6260 C.3   290  SER290      0.1924
    108  C         24.4000   28.8530    9.5300 C.2   290  SER290      0.2314
    109  O         24.7350   29.7030    8.7050 O.2   290  SER290     -0.2863
    110  CB        24.1310   29.4000   11.9570 C.3   290  SER290      0.2116
    111  OG        24.8390   28.2240   12.3170 O.3   290  SER290     -0.2180
    112  N         16.8540   32.7880    9.0890 N.3   329  TYR329     -0.1241
    113  CA        17.4370   34.0860    9.4160 C.3   329  TYR329      0.1605
    114  C         17.2000   35.0740    8.2690 C.2   329  TYR329      0.2264
    115  O         17.5090   36.2550    8.3760 O.2   329  TYR329     -0.2867
    116  CB        18.9460   33.9380    9.6530 C.3   329  TYR329      0.0534
    117  CG        19.2670   33.0430   10.8280 C.ar  329  TYR329     -0.0201
    118  CD1       19.7520   31.7560   10.6420 C.ar  329  TYR329     -0.0009
    119  CD2       19.0050   33.4660   12.1250 C.ar  329  TYR329     -0.0009
    120  CE1       20.0200   30.9320   11.7220 C.ar  329  TYR329      0.0417
    121  CE2       19.2590   32.6470   13.2070 C.ar  329  TYR329      0.0417
    122  CZ        19.7660   31.3820   13.0000 C.ar  329  TYR329      0.1957
    123  OH        20.0170   30.5740   14.0860 O.3   329  TYR329     -0.2866
@<TRIPOS>BOND
     1    54    52    1
     2    53    52    1
     3    52    51    1
     4   114   115    2
     5   114   113    1
     6   102   101    2
     7    51    48    1
     8   109   108    2
     9   112   113    1
    10    90    89    2
    11    99   100    1
    12    89    88    1
    13    87    88    1
    14   113   116    1
    15   108   107    1
    16   105   103    1
    17    48    47    1
    18    48    49    1
    19   116   117    1
    20   101   100    1
    21   101   106   am
    22    88    91    1
    23   100   103    1
    24   107   106    1
    25   107   110    1
    26   118   117   ar
    27   118   120   ar
    28    50    49    2
    29   103   104    1
    30    49    55   am
    31   117   119   ar
    32    80    79    1
    33    80    81    2
    34    79    78    1
    35    79    82    1
    36    91    92    1
    37   120   122   ar
    38    94    92   ar
    39    94    96   ar
    40   110   111    1
    41    55    56    1
    42   119   121   ar
    43    82    83    1
    44    92    93   ar
    45    83    84    1
    46    96    97   ar
    47   122   121   ar
    48   122   123    1
    49    56    57    1
    50    56    59    1
    51    66    65    1
    52    63    65   ar
    53    63    61   ar
    54    57    58    2
    55    65    64   ar
    56    93    95   ar
    57    61    60   ar
    58    64    62   ar
    59    40    39    1
    60    40    41    2
    61    97    95   ar
    62    97    98    1
    63    84    85    1
    64    38    39    1
    65    60    62   ar
    66    60    59    1
    67    39    42    1
    68    85    86    1
    69    67    68    1
    70    42    43    1
    71    43    44    1
    72    71    68    1
    73    71    72    1
    74    68    69    1
    75    33    35   ar
    76    33    31   ar
    77    35    36   ar
    78    28    27    1
    79    28    29    2
    80    27    30    1
    81    27    26    1
    82    73    72   ar
    83    73    75   ar
    84    72    74   ar
    85    44    45    1
    86    30    31    1
    87    31    32   ar
    88    69    70    2
    89    36    37    1
    90    36    34   ar
    91    45    46    1
    92     9    11   ar
    93     9     7   ar
    94    75    77   ar
    95    74    76   ar
    96    11    10   ar
    97    32    34   ar
    98     7     6   ar
    99    77    76   ar
   100    10     8   ar
   101    24    21    1
   102    24    25    1
   103     6     8   ar
   104     6     5    1
   105    21    22    1
   106    21    20    1
   107    23    22    2
   108    18    17   ar
   109     5     2    1
   110    16    17    1
   111    16    13    1
   112    17    19   ar
   113     1     2    1
   114    13    12    1
   115    13    14    1
   116     2     3    1
   117     4     3    2
   118    14    15    2
