@<TRIPOS>MOLECULE
tmp/1w3cA01.pdb
 128 125 0 0 0
SMALL
GASTEIGER

@<TRIPOS>ATOM
      1  N         76.8520   14.8530   -1.2230 N.3    39  GLN39      -0.1231
      2  CA        75.4460   14.5940   -0.9580 C.3    39  GLN39       0.1698
      3  C         74.7870   13.4420   -1.7120 C.2    39  GLN39       0.2593
      4  O         75.2480   12.8530   -2.6800 O.2    39  GLN39      -0.2718
      5  CB        74.6030   15.8550   -1.2110 C.3    39  GLN39       0.0381
      6  CG        74.9820   16.6410   -2.4540 C.3    39  GLN39       0.0905
      7  CD        74.5890   18.1040   -2.3370 C.2    39  GLN39       0.2608
      8  OE1       73.4410   18.4350   -2.0170 O.2    39  GLN39      -0.2717
      9  NE2       75.5580   18.9780   -2.5910 N.am   39  GLN39      -0.0878
     10  N         73.5800   13.1440   -1.2100 N.am   40  SER40      -0.1938
     11  CA        72.6830   12.1640   -1.7830 C.3    40  SER40       0.2055
     12  C         71.2570   12.6690   -1.9630 C.2    40  SER40       0.2643
     13  O         70.6200   13.1780   -1.0560 O.2    40  SER40      -0.2714
     14  CB        72.7230   10.9110   -0.8950 C.3    40  SER40       0.2130
     15  OG        72.4410    9.8160   -1.7780 O.3    40  SER40      -0.2179
     16  N         70.7270   12.5180   -3.1780 N.am   41  PHE41      -0.1973
     17  CA        69.4550   13.0990   -3.6060 C.3    41  PHE41       0.1639
     18  C         68.8010   12.1800   -4.6240 C.2    41  PHE41       0.2290
     19  O         69.2070   11.0260   -4.7620 O.2    41  PHE41      -0.2864
     20  CB        69.6080   14.5290   -4.1340 C.3    41  PHE41       0.0560
     21  CG        70.7780   14.7250   -5.0640 C.ar   41  PHE41      -0.0200
     22  CD1       70.5580   14.8570   -6.4250 C.ar   41  PHE41      -0.0042
     23  CD2       72.0890   14.7440   -4.5940 C.ar   41  PHE41      -0.0042
     24  CE1       71.6100   14.9920   -7.3030 C.ar   41  PHE41      -0.0003
     25  CE2       73.1430   14.8930   -5.4690 C.ar   41  PHE41      -0.0003
     26  CZ        72.9070   15.0110   -6.8270 C.ar   41  PHE41      -0.0000
     27  N         67.6510   18.4140   -8.7960 N.3    53  VAL53      -0.1245
     28  CA        67.8970   19.7440   -8.2830 C.3    53  VAL53       0.1561
     29  C         69.3340   20.2000   -8.5620 C.2    53  VAL53       0.2260
     30  O         70.2990   19.4790   -8.3190 O.2    53  VAL53      -0.2867
     31  CB        67.6510   19.8760   -6.7590 C.3    53  VAL53       0.0252
     32  CG1       66.1620   19.8700   -6.4900 C.3    53  VAL53       0.0019
     33  CG2       68.3880   18.7940   -5.9770 C.3    53  VAL53       0.0019
     34  N         70.9830   22.3890   -6.9240 N.3    55  HIS55      -0.1241
     35  CA        71.7590   22.5550   -5.6950 C.3    55  HIS55       0.1621
     36  C         72.3720   21.2520   -5.2130 C.2    55  HIS55       0.2264
     37  O         73.2800   21.2270   -4.3790 O.2    55  HIS55      -0.2867
     38  CB        70.9500   23.1760   -4.5710 C.3    55  HIS55       0.0745
     39  CG        69.8760   22.3640   -3.9370 C.ar   55  HIS55       0.0817
     40  ND1       68.5260   22.5930   -4.1510 N.ar   55  HIS55      -0.2268
     41  CD2       69.9480   21.3410   -3.0550 C.ar   55  HIS55       0.1154
     42  CE1       67.8150   21.7280   -3.4320 C.ar   55  HIS55       0.1986
     43  NE2       68.6540   20.9560   -2.7530 N.ar   55  HIS55      -0.2212
     44  N         62.0020   16.7320    9.4210 N.3   130  VAL130     -0.1245
     45  CA        62.6900   17.1910    8.2150 C.3   130  VAL130      0.1561
     46  C         63.8230   16.2570    7.8080 C.2   130  VAL130      0.2260
     47  O         64.1000   15.9940    6.6380 O.2   130  VAL130     -0.2867
     48  CB        63.2070   18.6300    8.3850 C.3   130  VAL130      0.0252
     49  CG1       64.1440   18.7000    9.5800 C.3   130  VAL130      0.0019
     50  CG2       63.8840   19.1160    7.1080 C.3   130  VAL130      0.0019
     51  N         62.9620   13.9050    5.2900 N.3   133  LEU133     -0.1231
     52  CA        62.9250   14.4100    3.9300 C.3   133  LEU133      0.1693
     53  C         64.3180   14.6360    3.3450 C.2   133  LEU133      0.2592
     54  O         64.3640   14.8840    2.1470 O.2   133  LEU133     -0.2718
     55  CB        62.2100   15.7570    3.8590 C.3   133  LEU133      0.0284
     56  CG        60.7550   15.8070    3.4180 C.3   133  LEU133      0.0019
     57  CD1       60.0050   14.5810    3.8840 C.3   133  LEU133      0.0001
     58  CD2       60.1060   17.1000    3.9100 C.3   133  LEU133      0.0001
     59  N         65.3270   14.6810    4.2020 N.am  134  LYS134     -0.1966
     60  CA        66.7050   14.8670    3.7650 C.3   134  LYS134      0.1728
     61  C         67.1610   13.7790    2.8120 C.2   134  LYS134      0.2617
     62  O         66.8260   12.6150    3.0260 O.2   134  LYS134     -0.2715
     63  CB        67.6580   14.9860    4.9690 C.3   134  LYS134      0.0311
     64  CG        68.1480   16.4350    5.1260 C.3   134  LYS134      0.0038
     65  CD        68.9630   16.8090    3.8940 C.3   134  LYS134      0.0206
     66  CE        69.2720   18.2840    3.7540 C.3   134  LYS134      0.1093
     67  NZ        70.1270   18.5840    2.5620 N.3   134  LYS134     -0.1314
     68  N         67.7710   14.1600    1.6710 N.am  135  GLY135     -0.1940
     69  CA        68.0970   13.1110    0.6780 C.3   135  GLY135      0.2014
     70  C         66.9550   12.9040   -0.3170 C.2   135  GLY135      0.2640
     71  O         67.1130   12.0480   -1.1840 O.2   135  GLY135     -0.2714
     72  N         65.8560   13.6760   -0.2510 N.am  136  SER136     -0.1935
     73  CA        64.7370   13.4170   -1.1380 C.3   136  SER136      0.2055
     74  C         64.5950   14.4590   -2.2500 C.2   136  SER136      0.2643
     75  O         63.6460   14.4050   -3.0520 O.2   136  SER136     -0.2714
     76  CB        63.4000   13.2920   -0.3950 C.3   136  SER136      0.2130
     77  OG        63.1840   12.0060    0.1680 O.3   136  SER136     -0.2179
     78  N         65.3760   15.5230   -2.1920 N.am  137  SER137     -0.1949
     79  CA        65.4050   16.5240   -3.2400 C.3   137  SER137      0.1924
     80  C         65.5470   15.9100   -4.6280 C.2   137  SER137      0.2314
     81  O         66.4060   15.0620   -4.8140 O.2   137  SER137     -0.2863
     82  CB        66.5840   17.4890   -3.0680 C.3   137  SER137      0.2116
     83  OG        66.2660   18.2700   -1.9490 O.3   137  SER137     -0.2180
     84  N         60.4570   17.6410   -5.7850 N.3   152  PHE152     -0.1227
     85  CA        60.8010   18.2740   -4.5070 C.3   152  PHE152      0.1736
     86  C         62.0750   19.1040   -4.6020 C.2   152  PHE152      0.2595
     87  O         63.1320   18.6760   -5.0810 O.2   152  PHE152     -0.2718
     88  CB        60.8730   17.1510   -3.4790 C.3   152  PHE152      0.0547
     89  CG        61.1060   17.5890   -2.0620 C.ar  152  PHE152     -0.0202
     90  CD1       60.4860   18.7090   -1.5460 C.ar  152  PHE152     -0.0042
     91  CD2       61.9460   16.8440   -1.2400 C.ar  152  PHE152     -0.0042
     92  CE1       60.7050   19.0900   -0.2380 C.ar  152  PHE152     -0.0003
     93  CE2       62.1810   17.2360    0.0650 C.ar  152  PHE152     -0.0003
     94  CZ        61.5520   18.3700    0.5680 C.ar  152  PHE152     -0.0000
     95  N         62.0020   20.3520   -4.1450 N.am  153  ARG153     -0.1966
     96  CA        63.1390   21.2330   -3.9890 C.3   153  ARG153      0.1729
     97  C         63.5470   21.4680   -2.5300 C.2   153  ARG153      0.2616
     98  O         64.6960   21.2490   -2.1830 O.2   153  ARG153     -0.2715
     99  CB        62.8210   22.6350   -4.5050 C.3   153  ARG153      0.0348
    100  CG        63.3100   23.0480   -5.8640 C.3   153  ARG153      0.0492
    101  CD        63.1760   24.5710   -6.0010 C.3   153  ARG153      0.2205
    102  NE        64.4060   25.2090   -5.5640 N.pl3 153  ARG153     -0.0865
    103  CZ        64.5630   26.1680   -4.6710 C.cat 153  ARG153      0.5346
    104  NH1       63.5300   26.6730   -4.0080 N.pl3 153  ARG153      0.1354
    105  NH2       65.7950   26.6110   -4.4320 N.pl3 153  ARG153      0.1354
    106  N         62.5930   21.9700   -1.7370 N.am  154  ALA154     -0.1963
    107  CA        62.9170   22.4840   -0.4140 C.3   154  ALA154      0.1728
    108  C         61.7580   22.2880    0.5680 C.2   154  ALA154      0.2616
    109  O         60.5780   22.2630    0.2120 O.2   154  ALA154     -0.2715
    110  CB        63.3810   23.9530   -0.4740 C.3   154  ALA154      0.0334
    111  N         62.1230   21.9660    1.8190 N.am  155  ALA155     -0.1963
    112  CA        61.1120   21.7760    2.8500 C.3   155  ALA155      0.1728
    113  C         61.1240   23.0580    3.6880 C.2   155  ALA155      0.2616
    114  O         62.2190   23.5510    3.9110 O.2   155  ALA155     -0.2715
    115  CB        61.3900   20.5820    3.7360 C.3   155  ALA155      0.0334
    116  N         59.9540   23.5360    4.0460 N.am  156  VAL156     -0.1963
    117  CA        59.8070   24.6330    4.9960 C.3   156  VAL156      0.1727
    118  C         59.3780   24.0310    6.3280 C.2   156  VAL156      0.2616
    119  O         58.4780   23.1910    6.4230 O.2   156  VAL156     -0.2715
    120  CB        58.8900   25.7370    4.4650 C.3   156  VAL156      0.0290
    121  CG1       58.0100   25.2620    3.3200 C.3   156  VAL156      0.0023
    122  CG2       57.9890   26.3650    5.5190 C.3   156  VAL156      0.0023
    123  N         60.1760   24.3180    7.3560 N.am  157  CYS157     -0.1968
    124  CA        60.0860   23.6190    8.6310 C.3   157  CYS157      0.1712
    125  C         60.4190   24.5160    9.8110 C.2   157  CYS157      0.2296
    126  O         61.1880   25.4640    9.6440 O.2   157  CYS157     -0.2864
    127  CB        61.0770   22.4410    8.5990 C.3   157  CYS157      0.0983
    128  SG        62.7960   22.9700    8.5110 S.3   157  CYS157     -0.0798
@<TRIPOS>BOND
     1    27    28    1
     2    29    30    2
     3    29    28    1
     4    28    31    1
     5    24    26   ar
     6    24    22   ar
     7    34    35    1
     8    26    25   ar
     9    31    32    1
    10    31    33    1
    11    22    21   ar
    12   101   100    1
    13   101   102    1
    14   100    99    1
    15    84    85    1
    16    35    36    1
    17    35    38    1
    18   102   103    2
    19    25    23   ar
    20    36    37    2
    21    87    86    2
    22    21    23   ar
    23    21    20    1
    24    81    80    2
    25    19    18    2
    26   103   105    1
    27   103   104    1
    28    80    79    1
    29    18    17    1
    30    86    85    1
    31    86    95   am
    32    38    39    1
    33    85    88    1
    34    99    96    1
    35    40    39   ar
    36    40    42   ar
    37    95    96    1
    38    20    17    1
    39    96    97    1
    40    39    41   ar
    41    17    16    1
    42    88    89    1
    43    42    43   ar
    44    79    82    1
    45    79    78    1
    46    16    12   am
    47    82    83    1
    48    41    43   ar
    49    75    74    2
    50     4     3    2
    51     9     7   am
    52    97    98    2
    53    97   106   am
    54     6     7    1
    55     6     5    1
    56     7     8    2
    57    74    78   am
    58    74    73    1
    59    89    90   ar
    60    89    91   ar
    61    12    11    1
    62    12    13    2
    63    11    10    1
    64    11    14    1
    65    15    14    1
    66   106   107    1
    67     3    10   am
    68     3     2    1
    69    90    92   ar
    70    91    93   ar
    71     1     2    1
    72     5     2    1
    73    71    70    2
    74    73    76    1
    75    73    72    1
    76   110   107    1
    77   107   108    1
    78    76    77    1
    79    70    72   am
    80    70    69    1
    81    92    94   ar
    82    93    94   ar
    83   109   108    2
    84   108   111   am
    85    69    68    1
    86    68    61   am
    87   111   112    1
    88    54    53    2
    89    67    66    1
    90    61    62    2
    91    61    60    1
    92   112   113    1
    93   112   115    1
    94   121   120    1
    95    53    52    1
    96    53    59   am
    97    56    55    1
    98    56    57    1
    99    56    58    1
   100   113   114    2
   101   113   116   am
   102    66    65    1
   103    60    59    1
   104    60    63    1
   105    55    52    1
   106    65    64    1
   107    52    51    1
   108   116   117    1
   109   120   117    1
   110   120   122    1
   111    63    64    1
   112   117   118    1
   113   118   119    2
   114   118   123   am
   115    47    46    2
   116    50    48    1
   117   123   124    1
   118    46    45    1
   119    45    48    1
   120    45    44    1
   121    48    49    1
   122   128   127    1
   123   127   124    1
   124   124   125    1
   125   126   125    2
