@<TRIPOS>MOLECULE
tmp/1w3gA00.pdb
 153 150 0 0 0
SMALL
GASTEIGER

@<TRIPOS>ATOM
      1  N         48.7170    3.5500  -21.9590 N.3    74  ARG74      -0.1245
      2  CA        49.7950    4.0870  -22.7810 C.3    74  ARG74       0.1563
      3  C         49.8470    3.6360  -24.2310 C.2    74  ARG74       0.2260
      4  O         50.4620    4.3080  -25.0670 O.2    74  ARG74      -0.2867
      5  CB        51.1650    3.8570  -22.1310 C.3    74  ARG74       0.0307
      6  CG        51.8480    5.1720  -21.7670 C.3    74  ARG74       0.0489
      7  CD        51.6380    6.1860  -22.8860 C.3    74  ARG74       0.2205
      8  NE        51.6830    7.5690  -22.4260 N.pl3  74  ARG74      -0.0865
      9  CZ        52.7920    8.2940  -22.3230 C.cat  74  ARG74       0.5346
     10  NH1       53.9650    7.7700  -22.6470 N.pl3  74  ARG74       0.1354
     11  NH2       52.7240    9.5490  -21.9050 N.pl3  74  ARG74       0.1354
     12  N         45.3500    5.3480  -28.1840 N.3    77  GLU77      -0.1245
     13  CA        45.0760    6.7710  -28.0990 C.3    77  GLU77       0.1567
     14  C         43.5610    6.9780  -28.1360 C.2    77  GLU77       0.2260
     15  O         42.8520    6.2620  -28.8370 O.2    77  GLU77      -0.2867
     16  CB        45.7120    7.4820  -29.2890 C.3    77  GLU77       0.0388
     17  CG        46.3160    8.8390  -28.9860 C.3    77  GLU77       0.1160
     18  CD        47.6790    8.7290  -28.3380 C.2    77  GLU77       0.3649
     19  OE1       48.5360    7.9940  -28.8720 O.co2  77  GLU77      -0.2457
     20  OE2       47.8970    9.3810  -27.2980 O.co2  77  GLU77      -0.2457
     21  N         45.3100    8.5550  -24.6150 N.3    79  TYR79      -0.1241
     22  CA        45.7960    7.9270  -23.3920 C.3    79  TYR79       0.1605
     23  C         44.8850    8.1160  -22.1770 C.2    79  TYR79       0.2264
     24  O         44.9620    7.3390  -21.2200 O.2    79  TYR79      -0.2867
     25  CB        47.1990    8.4340  -23.0460 C.3    79  TYR79       0.0534
     26  CG        48.2620    8.1390  -24.0820 C.ar   79  TYR79      -0.0201
     27  CD1       48.1360    7.0670  -24.9640 C.ar   79  TYR79      -0.0009
     28  CD2       49.4280    8.9020  -24.1400 C.ar   79  TYR79      -0.0009
     29  CE1       49.1480    6.7580  -25.8740 C.ar   79  TYR79       0.0417
     30  CE2       50.4440    8.6000  -25.0430 C.ar   79  TYR79       0.0417
     31  CZ        50.2980    7.5280  -25.9020 C.ar   79  TYR79       0.1957
     32  OH        51.3160    7.2200  -26.7700 O.3    79  TYR79      -0.2866
     33  N         48.4000   13.2590  -15.5520 N.3   119  VAL119     -0.1245
     34  CA        49.1350   14.5150  -15.6390 C.3   119  VAL119      0.1561
     35  C         48.1990   15.7150  -15.7210 C.2   119  VAL119      0.2260
     36  O         47.2160   15.7040  -16.4650 O.2   119  VAL119     -0.2867
     37  CB        50.0610   14.5310  -16.8920 C.3   119  VAL119      0.0252
     38  CG1       50.6980   15.9070  -17.0740 C.3   119  VAL119      0.0019
     39  CG2       51.1350   13.4820  -16.7470 C.3   119  VAL119      0.0019
     40  N         48.7900   19.7110  -16.2500 N.3   121  ARG121     -0.1245
     41  CA        49.6940   20.8250  -16.5140 C.3   121  ARG121      0.1563
     42  C         49.0810   21.8530  -17.4670 C.2   121  ARG121      0.2260
     43  O         48.0550   21.5970  -18.0940 O.2   121  ARG121     -0.2867
     44  CB        50.9690   20.2860  -17.1430 C.3   121  ARG121      0.0307
     45  CG        50.7060   19.6930  -18.5100 C.3   121  ARG121      0.0489
     46  CD        51.7940   18.7570  -18.9700 C.3   121  ARG121      0.2205
     47  NE        51.3580   18.0750  -20.1800 N.pl3 121  ARG121     -0.0865
     48  CZ        52.0530   17.1390  -20.8140 C.cat 121  ARG121      0.5346
     49  NH1       53.2440   16.7580  -20.3560 N.pl3 121  ARG121      0.1354
     50  NH2       51.5430   16.5770  -21.9040 N.pl3 121  ARG121      0.1354
     51  N         51.5990   24.0440  -19.1260 N.3   123  HIS123     -0.1226
     52  CA        52.7650   24.4330  -19.9090 C.3   123  HIS123      0.1752
     53  C         52.9450   23.5880  -21.1730 C.2   123  HIS123      0.2596
     54  O         53.5350   24.0420  -22.1530 O.2   123  HIS123     -0.2718
     55  CB        54.0250   24.3570  -19.0280 C.3   123  HIS123      0.0759
     56  CG        54.3720   22.9710  -18.5710 C.ar  123  HIS123      0.0818
     57  ND1       55.3020   22.1820  -19.2180 N.ar  123  HIS123     -0.2268
     58  CD2       53.9110   22.2320  -17.5330 C.ar  123  HIS123      0.1154
     59  CE1       55.3990   21.0190  -18.5980 C.ar  123  HIS123      0.1986
     60  NE2       54.5640   21.0230  -17.5720 N.ar  123  HIS123     -0.2212
     61  N         52.4400   22.3590  -21.1560 N.am  124  LEU124     -0.1966
     62  CA        52.5660   21.4830  -22.3130 C.3   124  LEU124      0.1728
     63  C         51.2170   20.8750  -22.6570 C.2   124  LEU124      0.2616
     64  O         50.3260   20.8000  -21.8140 O.2   124  LEU124     -0.2715
     65  CB        53.5760   20.3670  -22.0320 C.3   124  LEU124      0.0311
     66  CG        54.6590   20.1540  -23.0930 C.3   124  LEU124      0.0022
     67  CD1       55.4690   18.9140  -22.7390 C.3   124  LEU124      0.0001
     68  CD2       54.0300   19.9970  -24.4660 C.3   124  LEU124      0.0001
     69  N         51.0750   20.4280  -23.8990 N.am  125  GLN125     -0.1964
     70  CA        49.8280   19.8350  -24.3620 C.3   125  GLN125      0.1718
     71  C         50.0300   18.3480  -24.6340 C.2   125  GLN125      0.2458
     72  O         51.1030   17.9380  -25.0790 O.2   125  GLN125     -0.2730
     73  CB        49.3810   20.5520  -25.6310 C.3   125  GLN125      0.0407
     74  CG        47.9140   20.9060  -25.6720 C.3   125  GLN125      0.0908
     75  CD        47.6730   22.2570  -26.3230 C.2   125  GLN125      0.2608
     76  OE1       46.5350   22.6340  -26.5960 O.2   125  GLN125     -0.2717
     77  NE2       48.7490   22.9970  -26.5660 N.am  125  GLN125     -0.0878
     78  N         49.0120   17.5140  -24.3460 N.am  126  PRO126     -0.2727
     79  CA        47.6970   17.8520  -23.7870 C.3   126  PRO126      0.1402
     80  C         47.8270   18.2420  -22.3180 C.2   126  PRO126      0.2269
     81  O         48.6540   17.6830  -21.5910 O.2   126  PRO126     -0.2865
     82  CB        46.9010   16.5560  -23.9500 C.3   126  PRO126      0.0296
     83  CG        47.6100   15.8320  -25.0490 C.3   126  PRO126      0.0237
     84  CD        49.0500   16.0940  -24.7310 C.3   126  PRO126      0.0939
     85  N         46.7720   14.6690  -19.3740 N.3   129  TRP129     -0.1227
     86  CA        47.3210   13.5230  -20.0850 C.3   129  TRP129      0.1737
     87  C         47.8510   12.5510  -19.0360 C.2   129  TRP129      0.2595
     88  O         47.3390   12.5130  -17.9240 O.2   129  TRP129     -0.2718
     89  CB        48.4650   14.0070  -20.9820 C.3   129  TRP129      0.0564
     90  CG        48.7020   13.2010  -22.2160 C.ar  129  TRP129      0.0003
     91  CD1       49.9030   12.7650  -22.6840 C.ar  129  TRP129      0.0946
     92  CD2       47.7250   12.8000  -23.1870 C.ar  129  TRP129      0.0152
     93  NE1       49.7420   12.1190  -23.8860 N.ar  129  TRP129     -0.2442
     94  CE2       48.4140   12.1270  -24.2180 C.ar  129  TRP129      0.0810
     95  CE3       46.3340   12.9440  -23.2870 C.ar  129  TRP129      0.0012
     96  CZ2       47.7620   11.6010  -25.3360 C.ar  129  TRP129      0.0191
     97  CZ3       45.6840   12.4170  -24.4040 C.ar  129  TRP129      0.0001
     98  CH2       46.4020   11.7570  -25.4100 C.ar  129  TRP129      0.0015
     99  N         48.8490   11.7490  -19.4030 N.am  130  ASN130     -0.1960
    100  CA        49.4810   10.8330  -18.4620 C.3   130  ASN130      0.1819
    101  C         50.9440   10.6790  -18.8370 C.2   130  ASN130      0.2621
    102  O         51.3760   11.1560  -19.8820 O.2   130  ASN130     -0.2715
    103  CB        48.7940    9.4570  -18.4050 C.3   130  ASN130      0.1195
    104  CG        48.9730    8.6400  -19.6720 C.2   130  ASN130      0.2630
    105  OD1       49.9940    8.7340  -20.3590 O.2   130  ASN130     -0.2716
    106  ND2       47.9800    7.8060  -19.9730 N.am  130  ASN130     -0.0877
    107  N         51.7010   10.0040  -17.9840 N.am  131  HIS131     -0.1973
    108  CA        53.1250    9.8350  -18.2120 C.3   131  HIS131      0.1656
    109  C         53.6100    8.4990  -17.6530 C.2   131  HIS131      0.2291
    110  O         53.0070    7.9540  -16.7260 O.2   131  HIS131     -0.2864
    111  CB        53.8640   10.9750  -17.5100 C.3   131  HIS131      0.0771
    112  CG        55.2870   11.1340  -17.9350 C.ar  131  HIS131      0.0820
    113  ND1       55.6410   11.6580  -19.1590 N.ar  131  HIS131     -0.2267
    114  CD2       56.4450   10.8530  -17.2950 C.ar  131  HIS131      0.1154
    115  CE1       56.9580   11.6960  -19.2550 C.ar  131  HIS131      0.1986
    116  NE2       57.4690   11.2130  -18.1370 N.ar  131  HIS131     -0.2212
    117  N         58.7750    7.8620  -14.1240 N.3   135  GLU135     -0.1245
    118  CA        59.4350    9.1570  -14.1220 C.3   135  GLU135      0.1567
    119  C         58.4830   10.1840  -13.4940 C.2   135  GLU135      0.2260
    120  O         57.5670   10.6970  -14.1400 O.2   135  GLU135     -0.2867
    121  CB        59.8230    9.5670  -15.5460 C.3   135  GLU135      0.0388
    122  CG        60.4500   10.9490  -15.6160 C.3   135  GLU135      0.1160
    123  CD        61.0270   11.2730  -16.9750 C.2   135  GLU135      0.3649
    124  OE1       60.2910   11.1470  -17.9740 O.co2 135  GLU135     -0.2457
    125  OE2       62.2170   11.6630  -17.0430 O.co2 135  GLU135     -0.2457
    126  N         57.2000   13.5980  -12.1040 N.3   137  PHE137     -0.1241
    127  CA        57.2920   15.0410  -12.3130 C.3   137  PHE137      0.1605
    128  C         56.2390   15.6870  -11.4160 C.2   137  PHE137      0.2264
    129  O         55.2280   15.0680  -11.0950 O.2   137  PHE137     -0.2867
    130  CB        56.9990   15.4120  -13.7720 C.3   137  PHE137      0.0534
    131  CG        58.1790   15.2650  -14.6980 C.ar  137  PHE137     -0.0203
    132  CD1       58.2860   14.1670  -15.5460 C.ar  137  PHE137     -0.0042
    133  CD2       59.1650   16.2480  -14.7510 C.ar  137  PHE137     -0.0042
    134  CE1       59.3670   14.0560  -16.4430 C.ar  137  PHE137     -0.0003
    135  CE2       60.2430   16.1470  -15.6370 C.ar  137  PHE137     -0.0003
    136  CZ        60.3420   15.0490  -16.4850 C.ar  137  PHE137     -0.0000
    137  N         53.9430   17.8700  -11.9960 N.3   139  ASP139     -0.1225
    138  CA        52.6100   18.0240  -12.5730 C.3   139  ASP139      0.1805
    139  C         51.7620   16.7660  -12.5830 C.2   139  ASP139      0.2597
    140  O         50.7500   16.6960  -13.2840 O.2   139  ASP139     -0.2718
    141  CB        52.6820   18.5940  -13.9990 C.3   139  ASP139      0.1424
    142  CG        53.5410   17.7560  -14.9490 C.2   139  ASP139      0.3668
    143  OD1       53.8020   16.5640  -14.6770 O.co2 139  ASP139     -0.2456
    144  OD2       53.9440   18.3080  -15.9950 O.co2 139  ASP139     -0.2456
    145  N         52.1750   15.7770  -11.8020 N.am  140  GLN140     -0.1979
    146  CA        51.4490   14.5250  -11.6930 C.3   140  GLN140      0.1601
    147  C         50.7620   14.4610  -10.3360 C.2   140  GLN140      0.2287
    148  O         50.2100   13.4270   -9.9560 O.2   140  GLN140     -0.2864
    149  CB        52.4070   13.3490  -11.8150 C.3   140  GLN140      0.0394
    150  CG        52.8910   13.0760  -13.2120 C.3   140  GLN140      0.0908
    151  CD        54.1380   12.2280  -13.2140 C.2   140  GLN140      0.2608
    152  OE1       54.2780   11.3020  -12.4150 O.2   140  GLN140     -0.2717
    153  NE2       55.0530   12.5370  -14.1170 N.am  140  GLN140     -0.0878
@<TRIPOS>BOND
     1    16    17    1
     2    16    13    1
     3    17    18    1
     4    19    18   ar
     5    15    14    2
     6    18    20   ar
     7    12    13    1
     8    14    13    1
     9    32    31    1
    10    76    75    2
    11    77    75   am
    12    75    74    1
    13    31    29   ar
    14    31    30   ar
    15    29    27   ar
    16    74    73    1
    17    73    70    1
    18    98    96   ar
    19    98    97   ar
    20    96    94   ar
    21    72    71    2
    22     4     3    2
    23    83    84    1
    24    83    82    1
    25    30    28   ar
    26    27    26   ar
    27    84    78    1
    28    71    70    1
    29    71    78   am
    30    21    22    1
    31    68    66    1
    32    97    95   ar
    33    70    69    1
    34    78    79    1
    35     3     2    1
    36    94    93   ar
    37    94    92   ar
    38    28    26   ar
    39    26    25    1
    40    82    79    1
    41    69    63   am
    42    93    91   ar
    43    79    80    1
    44    22    25    1
    45    22    23    1
    46    95    92   ar
    47    92    90   ar
    48    66    67    1
    49    66    65    1
    50     7     8    1
    51     7     6    1
    52     2     5    1
    53     2     1    1
    54    91    90   ar
    55    63    62    1
    56    63    64    2
    57    10     9    1
    58     8     9    2
    59     9    11    1
    60    80    81    2
    61    62    65    1
    62    62    61    1
    63    90    89    1
    64    23    24    2
    65    54    53    2
    66     5     6    1
    67    50    48    1
    68    53    61   am
    69    53    52    1
    70    89    86    1
    71    48    49    1
    72    48    47    2
    73   105   104    2
    74    47    46    1
    75    86    85    1
    76    86    87    1
    77   106   104   am
    78    52    51    1
    79    52    55    1
    80   102   101    2
    81   104   103    1
    82    99    87   am
    83    99   100    1
    84   115   113   ar
    85   115   116   ar
    86    57    59   ar
    87    57    56   ar
    88   113   112   ar
    89    87    88    2
    90    55    56    1
    91    46    45    1
    92   101   100    1
    93   101   107   am
    94    59    60   ar
    95    56    58   ar
    96    45    44    1
    97   100   103    1
    98   108   107    1
    99   108   109    1
   100   108   111    1
   101   116   114   ar
   102    43    42    2
   103   124   123   ar
   104   112   111    1
   105   112   114   ar
   106   109   110    2
   107    60    58   ar
   108    42    41    1
   109    44    41    1
   110    38    37    1
   111   125   123   ar
   112   123   122    1
   113    37    39    1
   114    37    34    1
   115    41    40    1
   116   136   134   ar
   117   136   135   ar
   118    36    35    2
   119   134   132   ar
   120   144   142   ar
   121    35    34    1
   122    34    33    1
   123   135   133   ar
   124   122   121    1
   125   121   118    1
   126   132   131   ar
   127   142   143   ar
   128   142   141    1
   129   133   131   ar
   130   131   130    1
   131   120   119    2
   132   117   118    1
   133   118   119    1
   134   153   151   am
   135   141   138    1
   136   130   127    1
   137   140   139    2
   138   151   150    1
   139   151   152    2
   140   150   149    1
   141   139   138    1
   142   139   145   am
   143   138   137    1
   144   127   126    1
   145   127   128    1
   146   149   146    1
   147   145   146    1
   148   146   147    1
   149   128   129    2
   150   147   148    2
