@<TRIPOS>MOLECULE
tmp/1w3jA00.pdb
 133 135 0 0 0
SMALL
GASTEIGER

@<TRIPOS>ATOM
      1  N          3.0180   14.0000    0.6660 N.3    17  GLN17      -0.1245
      2  CA         1.7350   13.3650    0.4280 C.3    17  GLN17       0.1566
      3  C          0.9060   14.0170   -0.6770 C.2    17  GLN17       0.2260
      4  O          0.0700   13.3480   -1.2680 O.2    17  GLN17      -0.2867
      5  CB         0.9210   13.2390    1.7030 C.3    17  GLN17       0.0367
      6  CG         1.6500   12.4540    2.7500 C.3    17  GLN17       0.0905
      7  CD         0.8540   12.2980    3.9900 C.2    17  GLN17       0.2608
      8  OE1        1.0170   13.0450    4.9480 O.2    17  GLN17      -0.2717
      9  NE2       -0.0150   11.3060    4.0000 N.am   17  GLN17      -0.0878
     10  N          7.8970   16.9160    8.1940 N.3   118  HIS118     -0.1226
     11  CA         6.8500   15.8990    8.1240 C.3   118  HIS118      0.1752
     12  C          7.3900   14.7420    7.2670 C.2   118  HIS118      0.2596
     13  O          6.7580   14.3500    6.2950 O.2   118  HIS118     -0.2718
     14  CB         5.5670   16.4830    7.5440 C.3   118  HIS118      0.0759
     15  CG         4.3230   15.7110    7.8790 C.ar  118  HIS118      0.0818
     16  ND1        3.2170   16.3070    8.4510 N.ar  118  HIS118     -0.2268
     17  CD2        3.9790   14.4180    7.6540 C.ar  118  HIS118      0.1154
     18  CE1        2.2550   15.4070    8.5880 C.ar  118  HIS118      0.1986
     19  NE2        2.6930   14.2480    8.1170 N.ar  118  HIS118     -0.2212
     20  N          8.5810   14.2410    7.6560 N.am  119  TRP119     -0.1976
     21  CA         9.0790   12.9120    7.2940 C.3   119  TRP119      0.1640
     22  C          9.9400   12.8100    6.0450 C.2   119  TRP119      0.2290
     23  O         10.5910   11.7870    5.8580 O.2   119  TRP119     -0.2864
     24  CB         7.9430   11.8910    7.1650 C.3   119  TRP119      0.0576
     25  CG         7.0670   11.7640    8.3780 C.ar  119  TRP119      0.0006
     26  CD1        7.1190   12.4950    9.5240 C.ar  119  TRP119      0.0946
     27  CD2        5.9560   10.8750    8.5110 C.ar  119  TRP119      0.0152
     28  NE1        6.0920   12.0900   10.3910 N.ar  119  TRP119     -0.2442
     29  CE2        5.3880   11.0850    9.7860 C.ar  119  TRP119      0.0810
     30  CE3        5.3980    9.9010    7.6770 C.ar  119  TRP119      0.0012
     31  CZ2        4.2640   10.3760   10.2280 C.ar  119  TRP119      0.0191
     32  CZ3        4.2940    9.1830    8.1280 C.ar  119  TRP119      0.0001
     33  CH2        3.7340    9.4270    9.3660 C.ar  119  TRP119      0.0015
     34  N          6.4150   16.5900   13.0630 N.3   162  ASN162     -0.1225
     35  CA         5.2000   15.7980   13.0430 C.3   162  ASN162      0.1785
     36  C          5.4530   14.3790   13.5100 C.2   162  ASN162      0.2597
     37  O          6.2180   13.6530   12.8680 O.2   162  ASN162     -0.2718
     38  CB         4.6010   15.7200   11.6320 C.3   162  ASN162      0.1169
     39  CG         3.3350   14.8610   11.5960 C.2   162  ASN162      0.2627
     40  OD1        2.2760   15.2930   12.0580 O.2   162  ASN162     -0.2716
     41  ND2        3.4560   13.6240   11.0960 N.am  162  ASN162     -0.0877
     42  N          4.7640   13.9730   14.5910 N.am  163  GLU163     -0.1979
     43  CA         4.7500   12.5890   15.0790 C.3   163  GLU163      0.1602
     44  C          6.1420   11.9490   15.1660 C.2   163  GLU163      0.2287
     45  O          6.4030   10.9550   14.4730 O.2   163  GLU163     -0.2864
     46  CB         3.8090   11.6990   14.2330 C.3   163  GLU163      0.0415
     47  CG         2.3570   12.2030   14.2110 C.3   163  GLU163      0.1163
     48  CD         1.4520   11.4540   13.2080 C.2   163  GLU163      0.3649
     49  OE1        1.9740   10.7550   12.3090 O.co2 163  GLU163     -0.2457
     50  OE2        0.2090   11.5910   13.3080 O.co2 163  GLU163     -0.2457
     51  N         -6.8240    9.7390   16.0700 N.3   292  TYR292     -0.1241
     52  CA        -7.6210    8.9730   15.0790 C.3   292  TYR292      0.1605
     53  C         -8.4780    7.8720   15.6620 C.2   292  TYR292      0.2264
     54  O         -9.6290    7.7060   15.2460 O.2   292  TYR292     -0.2867
     55  CB        -6.7380    8.3650   13.9770 C.3   292  TYR292      0.0534
     56  CG        -6.1510    9.4180   13.0760 C.ar  292  TYR292     -0.0201
     57  CD1       -6.8380    9.8550   11.9490 C.ar  292  TYR292     -0.0009
     58  CD2       -4.9160    9.9860   13.3590 C.ar  292  TYR292     -0.0009
     59  CE1       -6.2940   10.8210   11.1250 C.ar  292  TYR292      0.0417
     60  CE2       -4.3760   10.9510   12.5430 C.ar  292  TYR292      0.0417
     61  CZ        -5.0580   11.3610   11.4370 C.ar  292  TYR292      0.1957
     62  OH        -4.5210   12.3170   10.6310 O.3   292  TYR292     -0.2866
     63  N         -9.2510    1.1280   11.7120 N.3   321  TRP321     -0.1241
     64  CA        -9.0630    1.7950   12.9900 C.3   321  TRP321      0.1605
     65  C        -10.4130    1.9710   13.7030 C.2   321  TRP321      0.2264
     66  O        -11.3490    2.5380   13.1440 O.2   321  TRP321     -0.2867
     67  CB        -8.4130    3.1660   12.7780 C.3   321  TRP321      0.0550
     68  CG        -7.0040    3.1430   12.2410 C.ar  321  TRP321      0.0003
     69  CD1       -6.1500    2.0830   12.2250 C.ar  321  TRP321      0.0946
     70  CD2       -6.2790    4.2540   11.7020 C.ar  321  TRP321      0.0152
     71  NE1       -4.9460    2.4460   11.6760 N.ar  321  TRP321     -0.2442
     72  CE2       -4.9930    3.7810   11.3520 C.ar  321  TRP321      0.0810
     73  CE3       -6.5970    5.6040   11.4580 C.ar  321  TRP321      0.0012
     74  CZ2       -4.0090    4.6160   10.7820 C.ar  321  TRP321      0.0191
     75  CZ3       -5.6200    6.4380   10.8880 C.ar  321  TRP321      0.0001
     76  CH2       -4.3500    5.9330   10.5340 C.ar  321  TRP321      0.0015
     77  N         -4.4750   17.2470   13.8140 N.3   348  GLU348     -0.1245
     78  CA        -5.0070   16.2630   12.8560 C.3   348  GLU348      0.1567
     79  C         -6.1020   15.4420   13.4920 C.2   348  GLU348      0.2260
     80  O         -5.9350   14.9490   14.6040 O.2   348  GLU348     -0.2867
     81  CB        -3.9310   15.2530   12.3990 C.3   348  GLU348      0.0388
     82  CG        -2.8510   15.8100   11.4810 C.3   348  GLU348      0.1160
     83  CD        -1.8770   14.7560   11.0160 C.2   348  GLU348      0.3649
     84  OE1       -2.2610   13.5550   11.0030 O.co2 348  GLU348     -0.2457
     85  OE2       -0.7320   15.1360   10.6500 O.co2 348  GLU348     -0.2457
     86  N         -7.5170   16.2890    9.0910 N.3   395  TRP395     -0.1241
     87  CA        -6.6590   15.5880    8.1250 C.3   395  TRP395      0.1605
     88  C         -7.6230   14.8550    7.2160 C.2   395  TRP395      0.2264
     89  O         -8.2970   13.9530    7.6960 O.2   395  TRP395     -0.2867
     90  CB        -5.7790   14.5350    8.8160 C.3   395  TRP395      0.0550
     91  CG        -4.9220   13.9050    7.8480 C.ar  395  TRP395      0.0003
     92  CD1       -5.1590   12.7510    7.1380 C.ar  395  TRP395      0.0946
     93  CD2       -3.6990   14.4410    7.3590 C.ar  395  TRP395      0.0152
     94  NE1       -4.1280   12.5290    6.2540 N.ar  395  TRP395     -0.2442
     95  CE2       -3.2220   13.5600    6.3690 C.ar  395  TRP395      0.0810
     96  CE3       -2.9500   15.5910    7.6670 C.ar  395  TRP395      0.0012
     97  CZ2       -2.0250   13.7880    5.6910 C.ar  395  TRP395      0.0191
     98  CZ3       -1.7720   15.8060    7.0000 C.ar  395  TRP395      0.0001
     99  CH2       -1.3130   14.9080    6.0240 C.ar  395  TRP395      0.0015
    100  N         -1.0440    8.0330    1.1890 N.3   402  GLU402     -0.1231
    101  CA        -1.0430    7.6010    2.5760 C.3   402  GLU402      0.1699
    102  C          0.1220    6.6490    2.8980 C.2   402  GLU402      0.2592
    103  O         -0.0840    5.5000    3.3210 O.2   402  GLU402     -0.2718
    104  CB        -2.4230    7.0440    2.9770 C.3   402  GLU402      0.0402
    105  CG        -2.5230    6.4930    4.4200 C.3   402  GLU402      0.1161
    106  CD        -2.2230    7.5310    5.5050 C.2   402  GLU402      0.3649
    107  OE1       -2.4840    8.7420    5.2850 O.co2 402  GLU402     -0.2457
    108  OE2       -1.7360    7.1290    6.5840 O.co2 402  GLU402     -0.2457
    109  N          1.3410    7.1490    2.6610 N.am  403  TRP403     -0.1976
    110  CA         2.5800    6.4980    3.0700 C.3   403  TRP403      0.1640
    111  C          2.6180    5.0630    2.5240 C.2   403  TRP403      0.2290
    112  O          2.3930    4.8860    1.3250 O.2   403  TRP403     -0.2864
    113  CB         2.7550    6.6180    4.5910 C.3   403  TRP403      0.0576
    114  CG         2.7070    8.0650    5.0100 C.ar  403  TRP403      0.0006
    115  CD1        1.7750    8.6550    5.8130 C.ar  403  TRP403      0.0946
    116  CD2        3.6160    9.1150    4.6010 C.ar  403  TRP403      0.0152
    117  NE1        2.0660   10.0020    5.9720 N.ar  403  TRP403     -0.2442
    118  CE2        3.1800   10.3140    5.2240 C.ar  403  TRP403      0.0810
    119  CE3        4.7640    9.1560    3.7740 C.ar  403  TRP403      0.0012
    120  CZ2        3.8460   11.5450    5.0460 C.ar  403  TRP403      0.0191
    121  CZ3        5.4570   10.3880    3.6270 C.ar  403  TRP403      0.0001
    122  CH2        4.9690   11.5660    4.2520 C.ar  403  TRP403      0.0015
    123  N         -8.2850   10.2010    2.9070 N.3   411  PHE411     -0.1241
    124  CA        -8.5910   10.9530    4.1350 C.3   411  PHE411      0.1605
    125  C         -9.1980   12.3440    3.8700 C.2   411  PHE411      0.2264
    126  O         -9.5290   13.0410    4.8190 O.2   411  PHE411     -0.2867
    127  CB        -7.3240   11.1590    4.9980 C.3   411  PHE411      0.0534
    128  CG        -6.9610   10.0020    5.8620 C.ar  411  PHE411     -0.0203
    129  CD1       -6.1880    8.9460    5.3650 C.ar  411  PHE411     -0.0042
    130  CD2       -7.3630    9.9620    7.1900 C.ar  411  PHE411     -0.0042
    131  CE1       -5.8580    7.8590    6.1670 C.ar  411  PHE411     -0.0003
    132  CE2       -7.0130    8.8930    8.0100 C.ar  411  PHE411     -0.0003
    133  CZ        -6.2600    7.8370    7.5010 C.ar  411  PHE411     -0.0000
@<TRIPOS>BOND
     1     4     3    2
     2     3     2    1
     3     2     1    1
     4     2     5    1
     5   100   101    1
     6   112   111    2
     7     5     6    1
     8   111   110    1
     9   101   102    1
    10   101   104    1
    11   109   102   am
    12   109   110    1
    13     6     7    1
    14   102   103    2
    15   123   124    1
    16   104   105    1
    17   110   113    1
    18   121   119   ar
    19   121   122   ar
    20   119   116   ar
    21   125   124    1
    22   125   126    2
    23     7     9   am
    24     7     8    2
    25   124   127    1
    26   122   120   ar
    27   105   106    1
    28   113   114    1
    29   116   114   ar
    30   116   118   ar
    31   127   128    1
    32   114   115   ar
    33   120   118   ar
    34   118   117   ar
    35   107   106   ar
    36   129   128   ar
    37   129   131   ar
    38   106   108   ar
    39    97    99   ar
    40    97    95   ar
    41   115   117   ar
    42    23    22    2
    43   128   130   ar
    44    99    98   ar
    45    22    21    1
    46   131   133   ar
    47    94    95   ar
    48    94    92   ar
    49    13    12    2
    50    95    93   ar
    51    98    96   ar
    52    92    91   ar
    53    24    21    1
    54    24    25    1
    55   130   132   ar
    56    88    89    2
    57    88    87    1
    58    12    20   am
    59    12    11    1
    60    21    20    1
    61    93    96   ar
    62    93    91   ar
    63   133   132   ar
    64    14    15    1
    65    14    11    1
    66    17    15   ar
    67    17    19   ar
    68    30    32   ar
    69    30    27   ar
    70    91    90    1
    71    15    16   ar
    72    19    18   ar
    73    11    10    1
    74    87    90    1
    75    87    86    1
    76    32    33   ar
    77    25    27   ar
    78    25    26   ar
    79    16    18   ar
    80    27    29   ar
    81    33    31   ar
    82    26    28   ar
    83    29    31   ar
    84    29    28   ar
    85    76    74   ar
    86    76    75   ar
    87    62    61    1
    88    85    83   ar
    89    74    72   ar
    90    75    73   ar
    91    84    83   ar
    92    83    82    1
    93    41    39   am
    94    59    61   ar
    95    59    57   ar
    96    72    71   ar
    97    72    70   ar
    98    61    60   ar
    99    73    70   ar
   100    82    81    1
   101    39    38    1
   102    39    40    2
   103    38    35    1
   104    71    69   ar
   105    70    68   ar
   106    63    64    1
   107    57    56   ar
   108    69    68   ar
   109    68    67    1
   110    49    48   ar
   111    81    78    1
   112    60    58   ar
   113    67    64    1
   114    78    79    1
   115    78    77    1
   116    37    36    2
   117    64    65    1
   118    35    34    1
   119    35    36    1
   120    56    58   ar
   121    56    55    1
   122    66    65    2
   123    48    50   ar
   124    48    47    1
   125    79    80    2
   126    36    42   am
   127    55    52    1
   128    47    46    1
   129    46    43    1
   130    45    44    2
   131    42    43    1
   132    43    44    1
   133    52    53    1
   134    52    51    1
   135    54    53    2
