@<TRIPOS>MOLECULE
tmp/1w3kA00.pdb
 105 102 0 0 0
SMALL
GASTEIGER

@<TRIPOS>ATOM
      1  N         61.8920   49.2330   28.2620 N.3    32  HIS32      -0.1241
      2  CA        61.1710   49.0940   29.5090 C.3    32  HIS32       0.1621
      3  C         59.7050   48.9210   29.0910 C.2    32  HIS32       0.2264
      4  O         59.4100   48.6060   27.9260 O.2    32  HIS32      -0.2867
      5  CB        61.4360   50.3350   30.3810 C.3    32  HIS32       0.0745
      6  CG        61.1070   50.2080   31.8330 C.ar   32  HIS32       0.0817
      7  ND1       59.8180   50.2210   32.3090 N.ar   32  HIS32      -0.2268
      8  CD2       61.9190   50.1990   32.9190 C.ar   32  HIS32       0.1154
      9  CE1       59.8570   50.1740   33.6350 C.ar   32  HIS32       0.1986
     10  NE2       61.1190   50.1810   34.0270 N.ar   32  HIS32      -0.2212
     11  N         54.8690   52.9060   29.3760 N.3    36  TRP36      -0.1241
     12  CA        55.4980   53.9520   30.1840 C.3    36  TRP36       0.1605
     13  C         56.6110   54.6860   29.4620 C.2    36  TRP36       0.2264
     14  O         56.7860   55.8900   29.6430 O.2    36  TRP36      -0.2867
     15  CB        56.1040   53.3460   31.4520 C.3    36  TRP36       0.0550
     16  CG        55.1290   52.7390   32.4020 C.ar   36  TRP36       0.0003
     17  CD1       53.9320   53.2640   32.8090 C.ar   36  TRP36       0.0946
     18  CD2       55.2930   51.5090   33.1050 C.ar   36  TRP36       0.0152
     19  NE1       53.3390   52.4150   33.7220 N.ar   36  TRP36      -0.2442
     20  CE2       54.1530   51.3280   33.9140 C.ar   36  TRP36       0.0810
     21  CE3       56.2920   50.5320   33.1120 C.ar   36  TRP36       0.0012
     22  CZ2       54.0080   50.2260   34.7600 C.ar   36  TRP36       0.0191
     23  CZ3       56.1370   49.4290   33.9490 C.ar   36  TRP36       0.0001
     24  CH2       55.0010   49.2820   34.7480 C.ar   36  TRP36       0.0015
     25  N         54.1360   44.9550   28.4190 N.3    63  TYR63      -0.1241
     26  CA        53.4140   44.5570   29.6150 C.3    63  TYR63       0.1605
     27  C         51.9850   44.2660   29.2260 C.2    63  TYR63       0.2264
     28  O         51.3550   44.9940   28.4420 O.2    63  TYR63      -0.2867
     29  CB        53.4070   45.6460   30.6810 C.3    63  TYR63       0.0534
     30  CG        54.5950   45.7260   31.5870 C.ar   63  TYR63      -0.0201
     31  CD1       55.8250   46.1900   31.1360 C.ar   63  TYR63      -0.0009
     32  CD2       54.4690   45.4160   32.9310 C.ar   63  TYR63      -0.0009
     33  CE1       56.9050   46.3310   31.9960 C.ar   63  TYR63       0.0417
     34  CE2       55.5340   45.5570   33.7820 C.ar   63  TYR63       0.0417
     35  CZ        56.7610   46.0330   33.3340 C.ar   63  TYR63       0.1957
     36  OH        57.8460   46.2290   34.1750 O.3    63  TYR63      -0.2866
     37  N         49.5550   46.1700   34.5660 N.3    66  SER66      -0.1217
     38  CA        50.2650   47.3940   34.9750 C.3    66  SER66       0.1889
     39  C         50.0700   48.5220   33.9530 C.2    66  SER66       0.2288
     40  O         50.9770   49.2710   33.6500 O.2    66  SER66      -0.2866
     41  CB        51.7550   47.1280   35.1850 C.3    66  SER66       0.2089
     42  OG        51.9790   46.0980   36.1370 O.3    66  SER66      -0.2183
     43  N         53.8120   39.7390   34.4280 N.3   100  LEU100     -0.1245
     44  CA        54.5750   39.9410   35.6560 C.3   100  LEU100      0.1561
     45  C         53.6250   39.8620   36.8380 C.2   100  LEU100      0.2260
     46  O         53.5250   38.8280   37.4870 O.2   100  LEU100     -0.2867
     47  CB        55.3440   41.2650   35.6160 C.3   100  LEU100      0.0270
     48  CG        56.2750   41.5180   36.8040 C.3   100  LEU100      0.0019
     49  CD1       57.3680   40.4510   36.9000 C.3   100  LEU100      0.0001
     50  CD2       56.8710   42.8790   36.7010 C.3   100  LEU100      0.0001
     51  N         69.7020   39.0290   37.5900 N.3   199  TYR199     -0.1241
     52  CA        70.0800   40.3560   38.0170 C.3   199  TYR199      0.1605
     53  C         71.3960   40.2520   38.7560 C.2   199  TYR199      0.2264
     54  O         71.5570   39.4200   39.6470 O.2   199  TYR199     -0.2867
     55  CB        68.9130   41.0020   38.8220 C.3   199  TYR199      0.0534
     56  CG        67.9470   41.6240   37.8120 C.ar  199  TYR199     -0.0201
     57  CD1       67.0400   40.8590   37.1150 C.ar  199  TYR199     -0.0009
     58  CD2       68.1080   42.9540   37.4210 C.ar  199  TYR199     -0.0009
     59  CE1       66.2380   41.4320   36.0910 C.ar  199  TYR199      0.0417
     60  CE2       67.3180   43.5280   36.4330 C.ar  199  TYR199      0.0417
     61  CZ        66.3980   42.7550   35.7700 C.ar  199  TYR199      0.1957
     62  OH        65.6500   43.3220   34.7620 O.3   199  TYR199     -0.2866
     63  N         65.0280   43.9260   41.7160 N.3   232  THR232     -0.1203
     64  CA        63.9390   44.8930   41.6070 C.3   232  THR232      0.1994
     65  C         64.0380   45.8090   40.3920 C.2   232  THR232      0.2618
     66  O         63.1060   46.5520   40.0740 O.2   232  THR232     -0.2717
     67  CB        64.0040   45.8250   42.8120 C.3   232  THR232      0.1784
     68  OG1       65.3120   46.3920   42.8450 O.3   232  THR232     -0.2211
     69  CG2       63.7260   45.1070   44.1370 C.3   232  THR232      0.0376
     70  N         65.1920   45.8040   39.7450 N.am  233  GLY233     -0.1956
     71  CA        65.5170   46.7740   38.7080 C.3   233  GLY233      0.1869
     72  C         66.2620   47.9820   39.2440 C.2   233  GLY233      0.2309
     73  O         66.6810   48.8500   38.4610 O.2   233  GLY233     -0.2863
     74  N         67.9840   44.7710   30.3220 N.3   259  TRP259     -0.1241
     75  CA        66.9230   45.6080   30.8480 C.3   259  TRP259      0.1605
     76  C         67.5620   46.8400   31.4980 C.2   259  TRP259      0.2264
     77  O         68.3530   46.6560   32.4390 O.2   259  TRP259     -0.2867
     78  CB        66.1820   44.8210   31.9260 C.3   259  TRP259      0.0550
     79  CG        64.9690   45.5000   32.4690 C.ar  259  TRP259      0.0003
     80  CD1       64.8810   46.2700   33.5950 C.ar  259  TRP259      0.0946
     81  CD2       63.6480   45.4750   31.9000 C.ar  259  TRP259      0.0152
     82  NE1       63.5990   46.7110   33.7610 N.ar  259  TRP259     -0.2442
     83  CE2       62.8240   46.2320   32.7410 C.ar  259  TRP259      0.0810
     84  CE3       63.0840   44.8760   30.7670 C.ar  259  TRP259      0.0012
     85  CZ2       61.4870   46.4130   32.4730 C.ar  259  TRP259      0.0191
     86  CZ3       61.7630   45.0660   30.5090 C.ar  259  TRP259      0.0001
     87  CH2       60.9750   45.8270   31.3580 C.ar  259  TRP259      0.0015
     88  N         64.4360   56.2330   33.3200 N.3   264  LYS264     -0.1245
     89  CA        63.9180   56.0850   34.6770 C.3   264  LYS264      0.1561
     90  C         65.0400   56.0970   35.7000 C.2   264  LYS264      0.2260
     91  O         66.1010   55.5390   35.4570 O.2   264  LYS264     -0.2867
     92  CB        63.1430   54.7740   34.8180 C.3   264  LYS264      0.0271
     93  CG        62.4250   54.6420   36.1460 C.3   264  LYS264      0.0035
     94  CD        61.4560   53.4690   36.2080 C.3   264  LYS264      0.0206
     95  CE        60.7980   53.3610   37.5930 C.3   264  LYS264      0.1093
     96  NZ        59.6250   52.4160   37.6780 N.3   264  LYS264     -0.1314
     97  N         66.4080   54.4790   38.0690 N.3   266  GLU266     -0.1245
     98  CA        66.6790   53.2070   38.7120 C.3   266  GLU266      0.1567
     99  C         67.9750   52.6780   38.1490 C.2   266  GLU266      0.2260
    100  O         68.2970   52.9630   36.9780 O.2   266  GLU266     -0.2867
    101  CB        65.5300   52.2220   38.5280 C.3   266  GLU266      0.0388
    102  CG        65.2490   51.8010   37.1010 C.3   266  GLU266      0.1160
    103  CD        63.9960   50.9650   36.9570 C.2   266  GLU266      0.3649
    104  OE1       63.1860   50.8940   37.9230 O.co2 266  GLU266     -0.2457
    105  OE2       63.7550   50.4150   35.8440 O.co2 266  GLU266     -0.2457
@<TRIPOS>BOND
     1     4     3    2
     2     1     2    1
     3    25    26    1
     4    28    27    2
     5     3     2    1
     6    27    26    1
     7    11    12    1
     8    13    14    2
     9    13    12    1
    10     2     5    1
    11    26    29    1
    12    12    15    1
    13    74    75    1
    14     5     6    1
    15    86    84   ar
    16    86    87   ar
    17    29    30    1
    18    84    81   ar
    19    75    76    1
    20    75    78    1
    21    31    30   ar
    22    31    33   ar
    23    87    85   ar
    24    15    16    1
    25    76    77    2
    26    30    32   ar
    27     6     7   ar
    28     6     8   ar
    29    81    79   ar
    30    81    83   ar
    31    78    79    1
    32    33    35   ar
    33     7     9   ar
    34    16    17   ar
    35    16    18   ar
    36    79    80   ar
    37    85    83   ar
    38    83    82   ar
    39    17    19   ar
    40     8    10   ar
    41    32    34   ar
    42    18    21   ar
    43    18    20   ar
    44    21    23   ar
    45    88    89    1
    46    35    34   ar
    47    35    36    1
    48    80    82   ar
    49     9    10   ar
    50    40    39    2
    51    19    20   ar
    52    20    22   ar
    53    23    24   ar
    54    39    38    1
    55    43    44    1
    56    37    38    1
    57    89    92    1
    58    89    90    1
    59    24    22   ar
    60    62    61    1
    61    92    93    1
    62    38    41    1
    63    41    42    1
    64    91    90    2
    65    47    44    1
    66    47    48    1
    67    44    45    1
    68    61    59   ar
    69    61    60   ar
    70   105   103   ar
    71    59    57   ar
    72    93    94    1
    73    94    95    1
    74    60    58   ar
    75    50    48    1
    76    48    49    1
    77    45    46    2
    78   103   102    1
    79   103   104   ar
    80   100    99    2
    81   102   101    1
    82    57    56   ar
    83    58    56   ar
    84    51    52    1
    85    95    96    1
    86    56    55    1
    87    52    53    1
    88    52    55    1
    89    97    98    1
    90    99    98    1
    91    73    72    2
    92   101    98    1
    93    71    72    1
    94    71    70    1
    95    53    54    2
    96    70    65   am
    97    66    65    2
    98    65    64    1
    99    64    63    1
   100    64    67    1
   101    67    68    1
   102    67    69    1
