@<TRIPOS>MOLECULE
tmp/1w3kA01.pdb
 117 113 0 0 0
SMALL
GASTEIGER

@<TRIPOS>ATOM
      1  N         61.8920   49.2330   28.2620 N.3    32  HIS32      -0.1241
      2  CA        61.1710   49.0940   29.5090 C.3    32  HIS32       0.1621
      3  C         59.7050   48.9210   29.0910 C.2    32  HIS32       0.2264
      4  O         59.4100   48.6060   27.9260 O.2    32  HIS32      -0.2867
      5  CB        61.4360   50.3350   30.3810 C.3    32  HIS32       0.0745
      6  CG        61.1070   50.2080   31.8330 C.ar   32  HIS32       0.0817
      7  ND1       59.8180   50.2210   32.3090 N.ar   32  HIS32      -0.2268
      8  CD2       61.9190   50.1990   32.9190 C.ar   32  HIS32       0.1154
      9  CE1       59.8570   50.1740   33.6350 C.ar   32  HIS32       0.1986
     10  NE2       61.1190   50.1810   34.0270 N.ar   32  HIS32      -0.2212
     11  N         54.1360   44.9550   28.4190 N.3    63  TYR63      -0.1241
     12  CA        53.4140   44.5570   29.6150 C.3    63  TYR63       0.1605
     13  C         51.9850   44.2660   29.2260 C.2    63  TYR63       0.2264
     14  O         51.3550   44.9940   28.4420 O.2    63  TYR63      -0.2867
     15  CB        53.4070   45.6460   30.6810 C.3    63  TYR63       0.0534
     16  CG        54.5950   45.7260   31.5870 C.ar   63  TYR63      -0.0201
     17  CD1       55.8250   46.1900   31.1360 C.ar   63  TYR63      -0.0009
     18  CD2       54.4690   45.4160   32.9310 C.ar   63  TYR63      -0.0009
     19  CE1       56.9050   46.3310   31.9960 C.ar   63  TYR63       0.0417
     20  CE2       55.5340   45.5570   33.7820 C.ar   63  TYR63       0.0417
     21  CZ        56.7610   46.0330   33.3340 C.ar   63  TYR63       0.1957
     22  OH        57.8460   46.2290   34.1750 O.3    63  TYR63      -0.2866
     23  N         54.5630   40.4990   28.0800 N.3    98  HIS98      -0.1241
     24  CA        55.3810   40.7540   29.2610 C.3    98  HIS98       0.1621
     25  C         54.5170   40.6490   30.5310 C.2    98  HIS98       0.2264
     26  O         54.1570   41.6440   31.1870 O.2    98  HIS98      -0.2867
     27  CB        56.0810   42.0950   29.1460 C.3    98  HIS98       0.0745
     28  CG        57.1550   42.3190   30.1580 C.ar   98  HIS98       0.0817
     29  ND1       58.4730   42.0360   29.8980 N.ar   98  HIS98      -0.2268
     30  CD2       57.1310   42.8940   31.3890 C.ar   98  HIS98       0.1154
     31  CE1       59.2130   42.4060   30.9310 C.ar   98  HIS98       0.1986
     32  NE2       58.4220   42.9270   31.8530 N.ar   98  HIS98      -0.2212
     33  N         53.8120   39.7390   34.4280 N.3   100  LEU100     -0.1245
     34  CA        54.5750   39.9410   35.6560 C.3   100  LEU100      0.1561
     35  C         53.6250   39.8620   36.8380 C.2   100  LEU100      0.2260
     36  O         53.5250   38.8280   37.4870 O.2   100  LEU100     -0.2867
     37  CB        55.3440   41.2650   35.6160 C.3   100  LEU100      0.0270
     38  CG        56.2750   41.5180   36.8040 C.3   100  LEU100      0.0019
     39  CD1       57.3680   40.4510   36.9000 C.3   100  LEU100      0.0001
     40  CD2       56.8710   42.8790   36.7010 C.3   100  LEU100      0.0001
     41  N         56.8400   36.5320   29.6010 N.3   135  ASN135     -0.1225
     42  CA        58.0490   37.0550   30.2050 C.3   135  ASN135      0.1785
     43  C         58.4850   36.3030   31.4670 C.2   135  ASN135      0.2597
     44  O         59.5560   35.6800   31.4530 O.2   135  ASN135     -0.2718
     45  CB        57.8180   38.5380   30.5000 C.3   135  ASN135      0.1169
     46  CG        58.8420   39.1270   31.4250 C.2   135  ASN135      0.2627
     47  OD1       60.0420   39.0570   31.1670 O.2   135  ASN135     -0.2716
     48  ND2       58.3750   39.7410   32.5300 N.am  135  ASN135     -0.0877
     49  N         57.7270   36.4410   32.5570 N.am  136  GLU136     -0.1979
     50  CA        58.1270   35.9440   33.8870 C.3   136  GLU136      0.1602
     51  C         56.9550   35.3630   34.6350 C.2   136  GLU136      0.2287
     52  O         56.3860   35.9930   35.5280 O.2   136  GLU136     -0.2864
     53  CB        58.7700   37.0470   34.7180 C.3   136  GLU136      0.0415
     54  CG        60.1940   37.3160   34.2890 C.3   136  GLU136      0.1163
     55  CD        60.9080   38.4100   35.0620 C.2   136  GLU136      0.3649
     56  OE1       60.3150   39.0020   35.9800 O.co2 136  GLU136     -0.2457
     57  OE2       62.0910   38.6600   34.7380 O.co2 136  GLU136     -0.2457
     58  N         69.7020   39.0290   37.5900 N.3   199  TYR199     -0.1241
     59  CA        70.0800   40.3560   38.0170 C.3   199  TYR199      0.1605
     60  C         71.3960   40.2520   38.7560 C.2   199  TYR199      0.2264
     61  O         71.5570   39.4200   39.6470 O.2   199  TYR199     -0.2867
     62  CB        68.9130   41.0020   38.8220 C.3   199  TYR199      0.0534
     63  CG        67.9470   41.6240   37.8120 C.ar  199  TYR199     -0.0201
     64  CD1       67.0400   40.8590   37.1150 C.ar  199  TYR199     -0.0009
     65  CD2       68.1080   42.9540   37.4210 C.ar  199  TYR199     -0.0009
     66  CE1       66.2380   41.4320   36.0910 C.ar  199  TYR199      0.0417
     67  CE2       67.3180   43.5280   36.4330 C.ar  199  TYR199      0.0417
     68  CZ        66.3980   42.7550   35.7700 C.ar  199  TYR199      0.1957
     69  OH        65.6500   43.3220   34.7620 O.3   199  TYR199     -0.2866
     70  N         66.1630   38.5750   29.3150 N.3   225  GLU225     -0.1245
     71  CA        66.2020   39.7770   30.1350 C.3   225  GLU225      0.1567
     72  C         67.2330   39.5740   31.2310 C.2   225  GLU225      0.2260
     73  O         67.2300   38.5680   31.9240 O.2   225  GLU225     -0.2867
     74  CB        64.8480   40.0750   30.7470 C.3   225  GLU225      0.0388
     75  CG        64.8070   41.4930   31.2840 C.3   225  GLU225      0.1160
     76  CD        63.6220   41.7310   32.0870 C.2   225  GLU225      0.3649
     77  OE1       62.4700   41.6910   31.5710 O.co2 225  GLU225     -0.2457
     78  OE2       63.8410   41.9600   33.3150 O.co2 225  GLU225     -0.2457
     79  N         67.4240   42.6180   41.8110 N.3   231  ALA231     -0.1231
     80  CA        66.3010   41.9560   41.1310 C.3   231  ALA231      0.1694
     81  C         65.0820   42.8290   40.9680 C.2   231  ALA231      0.2593
     82  O         64.1740   42.4960   40.1880 O.2   231  ALA231     -0.2718
     83  CB        65.8940   40.7010   41.8790 C.3   231  ALA231      0.0304
     84  N         65.0280   43.9260   41.7160 N.am  232  THR232     -0.1939
     85  CA        63.9390   44.8930   41.6070 C.3   232  THR232      0.2028
     86  C         64.0380   45.8090   40.3920 C.2   232  THR232      0.2642
     87  O         63.1060   46.5520   40.0740 O.2   232  THR232     -0.2714
     88  CB        64.0040   45.8250   42.8120 C.3   232  THR232      0.1808
     89  OG1       65.3120   46.3920   42.8450 O.3   232  THR232     -0.2208
     90  CG2       63.7260   45.1070   44.1370 C.3   232  THR232      0.0379
     91  N         65.1920   45.8040   39.7450 N.am  233  GLY233     -0.1954
     92  CA        65.5170   46.7740   38.7080 C.3   233  GLY233      0.1869
     93  C         66.2620   47.9820   39.2440 C.2   233  GLY233      0.2309
     94  O         66.6810   48.8500   38.4610 O.2   233  GLY233     -0.2863
     95  N         67.9840   44.7710   30.3220 N.3   259  TRP259     -0.1241
     96  CA        66.9230   45.6080   30.8480 C.3   259  TRP259      0.1605
     97  C         67.5620   46.8400   31.4980 C.2   259  TRP259      0.2264
     98  O         68.3530   46.6560   32.4390 O.2   259  TRP259     -0.2867
     99  CB        66.1820   44.8210   31.9260 C.3   259  TRP259      0.0550
    100  CG        64.9690   45.5000   32.4690 C.ar  259  TRP259      0.0003
    101  CD1       64.8810   46.2700   33.5950 C.ar  259  TRP259      0.0946
    102  CD2       63.6480   45.4750   31.9000 C.ar  259  TRP259      0.0152
    103  NE1       63.5990   46.7110   33.7610 N.ar  259  TRP259     -0.2442
    104  CE2       62.8240   46.2320   32.7410 C.ar  259  TRP259      0.0810
    105  CE3       63.0840   44.8760   30.7670 C.ar  259  TRP259      0.0012
    106  CZ2       61.4870   46.4130   32.4730 C.ar  259  TRP259      0.0191
    107  CZ3       61.7630   45.0660   30.5090 C.ar  259  TRP259      0.0001
    108  CH2       60.9750   45.8270   31.3580 C.ar  259  TRP259      0.0015
    109  N         66.4080   54.4790   38.0690 N.3   266  GLU266     -0.1245
    110  CA        66.6790   53.2070   38.7120 C.3   266  GLU266      0.1567
    111  C         67.9750   52.6780   38.1490 C.2   266  GLU266      0.2260
    112  O         68.2970   52.9630   36.9780 O.2   266  GLU266     -0.2867
    113  CB        65.5300   52.2220   38.5280 C.3   266  GLU266      0.0388
    114  CG        65.2490   51.8010   37.1010 C.3   266  GLU266      0.1160
    115  CD        63.9960   50.9650   36.9570 C.2   266  GLU266      0.3649
    116  OE1       63.1860   50.8940   37.9230 O.co2 266  GLU266     -0.2457
    117  OE2       63.7550   50.4150   35.8440 O.co2 266  GLU266     -0.2457
@<TRIPOS>BOND
     1     4     3    2
     2    23    24    1
     3     1     2    1
     4    11    12    1
     5    14    13    2
     6     3     2    1
     7    27    24    1
     8    27    28    1
     9    13    12    1
    10    24    25    1
    11    70    71    1
    12     2     5    1
    13    41    42    1
    14    12    15    1
    15    29    28   ar
    16    29    31   ar
    17    71    74    1
    18    71    72    1
    19    28    30   ar
    20    42    45    1
    21    42    43    1
    22    95    96    1
    23     5     6    1
    24    45    46    1
    25   107   105   ar
    26   107   108   ar
    27    25    26    2
    28    15    16    1
    29    74    75    1
    30   105   102   ar
    31    96    97    1
    32    96    99    1
    33    31    32   ar
    34    17    16   ar
    35    17    19   ar
    36    47    46    2
    37    72    73    2
    38    75    76    1
    39   108   106   ar
    40    30    32   ar
    41    46    48   am
    42    44    43    2
    43    43    49   am
    44    97    98    2
    45    77    76   ar
    46    16    18   ar
    47     6     7   ar
    48     6     8   ar
    49   102   100   ar
    50   102   104   ar
    51    99   100    1
    52    19    21   ar
    53    76    78   ar
    54     7     9   ar
    55   100   101   ar
    56   106   104   ar
    57    49    50    1
    58   104   103   ar
    59     8    10   ar
    60    18    20   ar
    61    21    20   ar
    62    21    22    1
    63   101   103   ar
    64     9    10   ar
    65    50    51    1
    66    50    53    1
    67    54    53    1
    68    54    55    1
    69    33    34    1
    70    51    52    2
    71    57    55   ar
    72    69    68    1
    73    55    56   ar
    74    37    34    1
    75    37    38    1
    76    34    35    1
    77    68    66   ar
    78    68    67   ar
    79   117   115   ar
    80    66    64   ar
    81    67    65   ar
    82    40    38    1
    83    38    39    1
    84    35    36    2
    85   115   114    1
    86   115   116   ar
    87   112   111    2
    88   114   113    1
    89    64    63   ar
    90    65    63   ar
    91    58    59    1
    92    63    62    1
    93    59    60    1
    94    59    62    1
    95   109   110    1
    96   111   110    1
    97    94    93    2
    98   113   110    1
    99    92    93    1
   100    92    91    1
   101    60    61    2
   102    91    86   am
   103    87    86    2
   104    82    81    2
   105    86    85    1
   106    81    80    1
   107    81    84   am
   108    80    79    1
   109    80    83    1
   110    85    84    1
   111    85    88    1
   112    88    89    1
   113    88    90    1
