@<TRIPOS>MOLECULE
tmp/1w3lA00.pdb
 117 115 0 0 0
SMALL
GASTEIGER

@<TRIPOS>ATOM
      1  N         62.3220   49.2210   28.2730 N.3    32  HIS32      -0.1241
      2  CA        61.5540   49.0860   29.5000 C.3    32  HIS32       0.1621
      3  C         60.1020   48.9130   29.0870 C.2    32  HIS32       0.2264
      4  O         59.8110   48.5950   27.9250 O.2    32  HIS32      -0.2867
      5  CB        61.8660   50.3170   30.4030 C.3    32  HIS32       0.0745
      6  CG        61.5000   50.2130   31.8570 C.ar   32  HIS32       0.0817
      7  ND1       60.2030   50.2000   32.3240 N.ar   32  HIS32      -0.2268
      8  CD2       62.3210   50.2260   32.9320 C.ar   32  HIS32       0.1154
      9  CE1       60.2680   50.1910   33.6490 C.ar   32  HIS32       0.1986
     10  NE2       61.5330   50.2310   34.0420 N.ar   32  HIS32      -0.2212
     11  N         55.3110   52.8620   29.5250 N.3    36  TRP36      -0.1227
     12  CA        55.9460   53.8790   30.3640 C.3    36  TRP36       0.1737
     13  C         57.0500   54.6420   29.6280 C.2    36  TRP36       0.2595
     14  O         57.2300   55.8470   29.8530 O.2    36  TRP36      -0.2718
     15  CB        56.5370   53.2360   31.6250 C.3    36  TRP36       0.0564
     16  CG        55.5460   52.6470   32.5470 C.ar   36  TRP36       0.0003
     17  CD1       54.3780   53.2090   32.9650 C.ar   36  TRP36       0.0946
     18  CD2       55.6770   51.4120   33.2360 C.ar   36  TRP36       0.0152
     19  NE1       53.7510   52.3730   33.8660 N.ar   36  TRP36      -0.2442
     20  CE2       54.5330   51.2660   34.0510 C.ar   36  TRP36       0.0810
     21  CE3       56.6230   50.3930   33.2240 C.ar   36  TRP36       0.0012
     22  CZ2       54.3570   50.1630   34.8930 C.ar   36  TRP36       0.0191
     23  CZ3       56.4450   49.3040   34.0610 C.ar   36  TRP36       0.0001
     24  CH2       55.3140   49.1940   34.8700 C.ar   36  TRP36       0.0015
     25  N         57.8390   53.9340   28.8160 N.am   37  TYR37      -0.1976
     26  CA        59.0470   54.4950   28.2110 C.3    37  TYR37       0.1639
     27  C         59.1100   54.1410   26.7210 C.2    37  TYR37       0.2290
     28  O         60.1830   53.8990   26.1540 O.2    37  TYR37      -0.2864
     29  CB        60.2850   54.0160   28.9500 C.3    37  TYR37       0.0560
     30  CG        60.3060   54.4550   30.4060 C.ar   37  TYR37      -0.0198
     31  CD1       60.5010   55.7930   30.7780 C.ar   37  TYR37      -0.0009
     32  CD2       60.1310   53.5440   31.4250 C.ar   37  TYR37      -0.0009
     33  CE1       60.5090   56.1880   32.0990 C.ar   37  TYR37       0.0417
     34  CE2       60.1200   53.9400   32.7430 C.ar   37  TYR37       0.0417
     35  CZ        60.3120   55.2590   33.0790 C.ar   37  TYR37       0.1957
     36  OH        60.3160   55.6210   34.4030 O.3    37  TYR37      -0.2866
     37  N         54.5680   44.9060   28.4330 N.3    63  TYR63      -0.1241
     38  CA        53.8300   44.5060   29.6350 C.3    63  TYR63       0.1605
     39  C         52.4070   44.2170   29.2400 C.2    63  TYR63       0.2264
     40  O         51.7840   44.9570   28.4540 O.2    63  TYR63      -0.2867
     41  CB        53.8200   45.5790   30.7030 C.3    63  TYR63       0.0534
     42  CG        55.0390   45.6600   31.5980 C.ar   63  TYR63      -0.0201
     43  CD1       56.2790   46.1080   31.1410 C.ar   63  TYR63      -0.0009
     44  CD2       54.9540   45.3290   32.9480 C.ar   63  TYR63      -0.0009
     45  CE1       57.3450   46.2660   31.9940 C.ar   63  TYR63       0.0417
     46  CE2       56.0380   45.4690   33.8120 C.ar   63  TYR63       0.0417
     47  CZ        57.2140   45.9780   33.3450 C.ar   63  TYR63       0.1957
     48  OH        58.3110   46.1950   34.1560 O.3    63  TYR63      -0.2866
     49  N         49.9500   46.0910   34.6140 N.3    66  SER66      -0.1217
     50  CA        50.6630   47.3100   35.0170 C.3    66  SER66       0.1889
     51  C         50.4790   48.4260   33.9910 C.2    66  SER66       0.2288
     52  O         51.3930   49.1840   33.7290 O.2    66  SER66      -0.2866
     53  CB        52.1430   47.0620   35.2730 C.3    66  SER66       0.2089
     54  OG        52.3640   46.0400   36.2050 O.3    66  SER66      -0.2183
     55  N         54.2410   39.7240   34.4590 N.3   100  LEU100     -0.1245
     56  CA        55.0090   39.9370   35.6880 C.3   100  LEU100      0.1561
     57  C         54.0590   39.8600   36.8780 C.2   100  LEU100      0.2260
     58  O         53.9640   38.8180   37.5310 O.2   100  LEU100     -0.2867
     59  CB        55.7780   41.2380   35.6210 C.3   100  LEU100      0.0270
     60  CG        56.7110   41.5030   36.7970 C.3   100  LEU100      0.0019
     61  CD1       57.7760   40.4290   36.9110 C.3   100  LEU100      0.0001
     62  CD2       57.3530   42.8740   36.7000 C.3   100  LEU100      0.0001
     63  N         70.1900   38.9980   37.5630 N.3   199  TYR199     -0.1241
     64  CA        70.5420   40.3370   37.9910 C.3   199  TYR199      0.1605
     65  C         71.8480   40.2380   38.7420 C.2   199  TYR199      0.2264
     66  O         72.0000   39.4100   39.6520 O.2   199  TYR199     -0.2867
     67  CB        69.3710   41.0040   38.7690 C.3   199  TYR199      0.0534
     68  CG        68.4250   41.6190   37.7810 C.ar  199  TYR199     -0.0201
     69  CD1       67.4690   40.8660   37.1310 C.ar  199  TYR199     -0.0009
     70  CD2       68.5840   42.9360   37.3830 C.ar  199  TYR199     -0.0009
     71  CE1       66.7010   41.4300   36.1030 C.ar  199  TYR199      0.0417
     72  CE2       67.7950   43.5040   36.4170 C.ar  199  TYR199      0.0417
     73  CZ        66.8870   42.7490   35.7700 C.ar  199  TYR199      0.1957
     74  OH        66.1690   43.3220   34.7430 O.3   199  TYR199     -0.2866
     75  N         65.4670   43.9230   41.7110 N.3   232  THR232     -0.1203
     76  CA        64.4110   44.9040   41.5730 C.3   232  THR232      0.1994
     77  C         64.5300   45.8220   40.3630 C.2   232  THR232      0.2618
     78  O         63.5920   46.5760   40.0800 O.2   232  THR232     -0.2717
     79  CB        64.4900   45.8180   42.7970 C.3   232  THR232      0.1784
     80  OG1       65.7950   46.3990   42.7770 O.3   232  THR232     -0.2211
     81  CG2       64.2150   45.1000   44.1070 C.3   232  THR232      0.0376
     82  N         65.6770   45.7980   39.6970 N.am  233  GLY233     -0.1956
     83  CA        65.9870   46.7750   38.6820 C.3   233  GLY233      0.1869
     84  C         66.7290   47.9940   39.2050 C.2   233  GLY233      0.2309
     85  O         67.1330   48.8760   38.4320 O.2   233  GLY233     -0.2863
     86  N         68.3930   44.7420   30.2960 N.3   259  TRP259     -0.1241
     87  CA        67.3480   45.5940   30.8310 C.3   259  TRP259      0.1605
     88  C         68.0000   46.8220   31.4520 C.2   259  TRP259      0.2264
     89  O         68.7810   46.6310   32.4040 O.2   259  TRP259     -0.2867
     90  CB        66.5950   44.8040   31.9190 C.3   259  TRP259      0.0550
     91  CG        65.3990   45.4830   32.4620 C.ar  259  TRP259      0.0003
     92  CD1       65.3210   46.2560   33.5870 C.ar  259  TRP259      0.0946
     93  CD2       64.0870   45.4600   31.9030 C.ar  259  TRP259      0.0152
     94  NE1       64.0600   46.7080   33.7650 N.ar  259  TRP259     -0.2442
     95  CE2       63.2560   46.2350   32.7570 C.ar  259  TRP259      0.0810
     96  CE3       63.5140   44.8550   30.7740 C.ar  259  TRP259      0.0012
     97  CZ2       61.9200   46.4130   32.4970 C.ar  259  TRP259      0.0191
     98  CZ3       62.2060   45.0350   30.5180 C.ar  259  TRP259      0.0001
     99  CH2       61.3900   45.7880   31.3770 C.ar  259  TRP259      0.0015
    100  N         64.9920   56.2880   33.2510 N.3   264  LYS264     -0.1245
    101  CA        64.5190   56.1890   34.6240 C.3   264  LYS264      0.1561
    102  C         65.6740   56.2000   35.5780 C.2   264  LYS264      0.2260
    103  O         66.7320   55.6270   35.3090 O.2   264  LYS264     -0.2867
    104  CB        63.7310   54.8960   34.8320 C.3   264  LYS264      0.0271
    105  CG        63.1840   54.7360   36.2340 C.3   264  LYS264      0.0035
    106  CD        62.1780   53.6450   36.3420 C.3   264  LYS264      0.0206
    107  CE        61.6810   53.5550   37.7790 C.3   264  LYS264      0.1093
    108  NZ        60.5370   52.6290   37.9150 N.3   264  LYS264     -0.1314
    109  N         66.9540   54.5270   37.9580 N.3   266  GLU266     -0.1245
    110  CA        67.1900   53.2530   38.6260 C.3   266  GLU266      0.1567
    111  C         68.4830   52.6930   38.0750 C.2   266  GLU266      0.2260
    112  O         68.8200   52.9670   36.8950 O.2   266  GLU266     -0.2867
    113  CB        66.0240   52.2700   38.4640 C.3   266  GLU266      0.0388
    114  CG        65.7370   51.8040   37.0550 C.3   266  GLU266      0.1160
    115  CD        64.5100   50.9740   36.9240 C.2   266  GLU266      0.3649
    116  OE1       63.7190   50.8690   37.8970 O.co2 266  GLU266     -0.2457
    117  OE2       64.2730   50.4090   35.8200 O.co2 266  GLU266     -0.2457
@<TRIPOS>BOND
     1    28    27    2
     2    27    26    1
     3     4     3    2
     4    26    25    1
     5    26    29    1
     6     1     2    1
     7    37    38    1
     8    40    39    2
     9    25    13   am
    10    29    30    1
    11     3     2    1
    12    39    38    1
    13     2     5    1
    14    11    12    1
    15    13    14    2
    16    13    12    1
    17    38    41    1
    18    86    87    1
    19    12    15    1
    20     5     6    1
    21    30    31   ar
    22    30    32   ar
    23    98    96   ar
    24    98    99   ar
    25    41    42    1
    26    96    93   ar
    27    31    33   ar
    28    87    88    1
    29    87    90    1
    30    43    42   ar
    31    43    45   ar
    32    99    97   ar
    33    32    34   ar
    34    88    89    2
    35    42    44   ar
    36    15    16    1
    37     6     7   ar
    38     6     8   ar
    39    93    91   ar
    40    93    95   ar
    41    90    91    1
    42    45    47   ar
    43    33    35   ar
    44     7     9   ar
    45    91    92   ar
    46    97    95   ar
    47    16    17   ar
    48    16    18   ar
    49    34    35   ar
    50    95    94   ar
    51     8    10   ar
    52    44    46   ar
    53    17    19   ar
    54    35    36    1
    55    21    18   ar
    56    21    23   ar
    57    18    20   ar
    58   100   101    1
    59    47    46   ar
    60    47    48    1
    61    92    94   ar
    62     9    10   ar
    63    52    51    2
    64    19    20   ar
    65    51    50    1
    66    20    22   ar
    67    23    24   ar
    68    55    56    1
    69    49    50    1
    70   101   104    1
    71   101   102    1
    72    74    73    1
    73   104   105    1
    74    24    22   ar
    75    50    53    1
    76    53    54    1
    77   103   102    2
    78    59    56    1
    79    59    60    1
    80    56    57    1
    81    73    71   ar
    82    73    72   ar
    83   117   115   ar
    84    71    69   ar
    85   105   106    1
    86   106   107    1
    87    72    70   ar
    88    62    60    1
    89    60    61    1
    90    57    58    2
    91   112   111    2
    92   115   114    1
    93   115   116   ar
    94   114   113    1
    95    69    68   ar
    96    70    68   ar
    97    63    64    1
    98   107   108    1
    99    68    67    1
   100   109   110    1
   101    64    65    1
   102    64    67    1
   103   111   110    1
   104    85    84    2
   105   113   110    1
   106    83    84    1
   107    83    82    1
   108    65    66    2
   109    82    77   am
   110    78    77    2
   111    77    76    1
   112    76    75    1
   113    76    79    1
   114    80    79    1
   115    79    81    1
