@<TRIPOS>MOLECULE
tmp/1w3nC00.pdb
 106 99 0 0 0
SMALL
GASTEIGER

@<TRIPOS>ATOM
      1  N          4.1460   47.6640   43.4870 N.3     6  PRO6       -0.2116
      2  CA         5.5670   47.6880   43.1380 C.3     6  PRO6        0.1372
      3  C          6.1980   48.3600   44.3480 C.2     6  PRO6        0.2244
      4  O          6.2220   49.5690   44.5280 O.2     6  PRO6       -0.2868
      5  CB         5.6140   48.5920   41.8870 C.3     6  PRO6        0.0268
      6  CG         4.5150   49.5570   42.0900 C.3     6  PRO6        0.0207
      7  CD         3.4250   48.8230   42.9280 C.3     6  PRO6        0.0892
      8  N          5.4390   43.4860   43.6540 N.3    38  PHE38      -0.1241
      9  CA         6.2880   43.4670   42.4620 C.3    38  PHE38       0.1605
     10  C          7.5830   44.1020   42.9790 C.2    38  PHE38       0.2264
     11  O          7.6170   45.2580   43.3410 O.2    38  PHE38      -0.2867
     12  CB         5.6010   44.2640   41.3750 C.3    38  PHE38       0.0534
     13  CG         6.3390   44.3220   40.0550 C.ar   38  PHE38      -0.0203
     14  CD1        6.3750   43.2440   39.1880 C.ar   38  PHE38      -0.0042
     15  CD2        6.9090   45.5290   39.6420 C.ar   38  PHE38      -0.0042
     16  CE1        7.0150   43.3490   37.9430 C.ar   38  PHE38      -0.0003
     17  CE2        7.5790   45.6400   38.4310 C.ar   38  PHE38      -0.0003
     18  CZ         7.6610   44.5800   37.5890 C.ar   38  PHE38      -0.0000
     19  N         10.8880   46.8940   40.8840 N.3    41  GLY41      -0.1210
     20  CA        10.2310   47.5410   39.7570 C.3    41  GLY41       0.1956
     21  C         10.8210   48.9580   39.6700 C.2    41  GLY41       0.2613
     22  O         11.8190   49.2820   40.3670 O.2    41  GLY41      -0.2717
     23  N         10.1920   49.8130   38.8700 N.am   42  THR42      -0.1938
     24  CA        10.6220   51.2290   38.8190 C.3    42  THR42       0.2028
     25  C         10.4430   51.9310   40.1440 C.2    42  THR42       0.2642
     26  O         11.3370   52.6540   40.5960 O.2    42  THR42      -0.2714
     27  CB         9.7620   51.9630   37.7950 C.3    42  THR42       0.1808
     28  OG1       10.0930   51.4330   36.4940 O.3    42  THR42      -0.2208
     29  CG2       10.1510   53.4850   37.8010 C.3    42  THR42       0.0379
     30  N          9.2750   51.7480   40.7600 N.am   43  THR43      -0.1950
     31  CA         9.0420   52.3430   42.0790 C.3    43  THR43       0.1897
     32  C         10.0510   51.9100   43.1590 C.2    43  THR43       0.2313
     33  O         10.4010   52.6980   44.0560 O.2    43  THR43      -0.2863
     34  CB         7.6470   51.9930   42.5570 C.3    43  THR43       0.1794
     35  OG1        6.7600   52.5580   41.6390 O.3    43  THR43      -0.2208
     36  CG2        7.2930   52.7420   43.8810 C.3    43  THR43       0.0378
     37  N          7.3640   43.3000   31.7600 N.3   129  TYR129     -0.1241
     38  CA         7.2140   44.6650   32.2490 C.3   129  TYR129      0.1605
     39  C          7.4760   45.6050   31.0260 C.2   129  TYR129      0.2264
     40  O          8.6370   45.9390   30.6990 O.2   129  TYR129     -0.2867
     41  CB         8.1550   44.9700   33.4630 C.3   129  TYR129      0.0534
     42  CG         8.0510   46.3690   34.0710 C.ar  129  TYR129     -0.0201
     43  CD1        6.9770   47.2220   33.7900 C.ar  129  TYR129     -0.0009
     44  CD2        9.0430   46.8280   34.9580 C.ar  129  TYR129     -0.0009
     45  CE1        6.9240   48.5040   34.3580 C.ar  129  TYR129      0.0417
     46  CE2        8.9950   48.1050   35.5260 C.ar  129  TYR129      0.0417
     47  CZ         7.9540   48.9200   35.2350 C.ar  129  TYR129      0.1957
     48  OH         7.9050   50.1460   35.8290 O.3   129  TYR129     -0.2866
     49  N          7.4290   49.1670   29.5970 N.3   131  TYR131     -0.1241
     50  CA         7.4460   50.5930   29.9780 C.3   131  TYR131      0.1605
     51  C          8.2280   51.3970   28.9210 C.2   131  TYR131      0.2264
     52  O          9.4340   51.6540   29.1020 O.2   131  TYR131     -0.2867
     53  CB         8.1440   50.7260   31.3530 C.3   131  TYR131      0.0534
     54  CG         7.9990   52.0570   32.0530 C.ar  131  TYR131     -0.0201
     55  CD1        8.4760   52.1910   33.3470 C.ar  131  TYR131     -0.0009
     56  CD2        7.4070   53.1670   31.4230 C.ar  131  TYR131     -0.0009
     57  CE1        8.4150   53.3620   34.0050 C.ar  131  TYR131      0.0417
     58  CE2        7.2600   54.3500   32.1020 C.ar  131  TYR131      0.0417
     59  CZ         7.7670   54.4290   33.3980 C.ar  131  TYR131      0.1957
     60  OH         7.6930   55.5700   34.1200 O.3   131  TYR131     -0.2866
     61  N          2.6310   43.7280   32.6280 N.3   154  LYS154     -0.1245
     62  CA         2.3350   45.0070   33.2420 C.3   154  LYS154      0.1561
     63  C          2.6270   46.0540   32.1470 C.2   154  LYS154      0.2260
     64  O          3.7660   46.1810   31.6910 O.2   154  LYS154     -0.2867
     65  CB         3.2750   45.2720   34.4470 C.3   154  LYS154      0.0271
     66  CG         3.1370   46.7320   35.0750 C.3   154  LYS154      0.0035
     67  CD         4.1640   46.9760   36.2760 C.3   154  LYS154      0.0206
     68  CE         4.3120   48.4450   36.6800 C.3   154  LYS154      0.1093
     69  NZ         5.4160   48.7650   37.7300 N.3   154  LYS154     -0.1314
     70  N          2.8280   49.8350   31.2500 N.3   156  THR156     -0.1218
     71  CA         2.8690   51.1870   31.8280 C.3   156  THR156      0.1862
     72  C          2.9480   52.0980   30.6240 C.2   156  THR156      0.2287
     73  O          4.0480   52.2540   30.0070 O.2   156  THR156     -0.2866
     74  CB         4.1380   51.3300   32.6690 C.3   156  THR156      0.1770
     75  OG1        3.9670   50.6360   33.8990 O.3   156  THR156     -0.2211
     76  CG2        4.3630   52.7860   33.1040 C.3   156  THR156      0.0375
     77  N         -0.0540   49.6170   34.5030 N.3   178  GLY178     -0.1225
     78  CA         0.8420   50.2370   35.4460 C.3   178  GLY178      0.1811
     79  C          0.3060   51.5640   35.9720 C.2   178  GLY178      0.2280
     80  O          1.0240   52.2500   36.6540 O.2   178  GLY178     -0.2866
     81  N         -0.8230   47.4420   38.7170 N.3   195  VAL195     -0.1245
     82  CA         0.3830   47.4300   39.5170 C.3   195  VAL195      0.1561
     83  C          0.5770   48.9080   39.7680 C.2   195  VAL195      0.2260
     84  O          1.0010   49.6550   38.8950 O.2   195  VAL195     -0.2867
     85  CB         1.5620   46.8600   38.7410 C.3   195  VAL195      0.0252
     86  CG1        2.8440   47.0310   39.5800 C.3   195  VAL195      0.0019
     87  CG2        1.3000   45.3280   38.3550 C.3   195  VAL195      0.0019
     88  N          1.7290   52.3240   41.8350 N.3   197  ALA197     -0.1245
     89  CA         2.7580   52.8470   42.7200 C.3   197  ALA197      0.1562
     90  C          2.1400   53.4200   43.9870 C.2   197  ALA197      0.2260
     91  O          2.6740   53.2440   45.0590 O.2   197  ALA197     -0.2867
     92  CB         3.6140   53.8850   42.0410 C.3   197  ALA197      0.0290
     93  N          7.8010   61.9630   41.6770 N.3   240  SER240     -0.1202
     94  CA         7.0340   60.8980   42.2990 C.3   240  SER240      0.2020
     95  C          7.8470   59.8890   43.1010 C.2   240  SER240      0.2618
     96  O          7.4220   59.4960   44.2200 O.2   240  SER240     -0.2717
     97  CB         6.1000   60.2010   41.2760 C.3   240  SER240      0.2103
     98  OG         6.8990   59.3470   40.4190 O.3   240  SER240     -0.2182
     99  N          8.9990   59.4570   42.5480 N.am  241  LEU241     -0.1979
    100  CA         9.8060   58.4110   43.1390 C.3   241  LEU241      0.1596
    101  C         10.3400   58.8180   44.5050 C.2   241  LEU241      0.2287
    102  O         10.4840   57.9770   45.3880 O.2   241  LEU241     -0.2864
    103  CB        10.9520   57.9700   42.2370 C.3   241  LEU241      0.0297
    104  CG        10.4790   57.2990   40.9040 C.3   241  LEU241      0.0022
    105  CD1       11.6440   57.2020   39.9830 C.3   241  LEU241      0.0001
    106  CD2        9.9310   55.8970   41.2050 C.3   241  LEU241      0.0001
@<TRIPOS>BOND
     1    51    52    2
     2    51    50    1
     3    49    50    1
     4    50    53    1
     5    73    72    2
     6    72    71    1
     7    40    39    2
     8    39    38    1
     9    70    71    1
    10    53    54    1
    11    56    54   ar
    12    56    58   ar
    13    64    63    2
    14    37    38    1
    15    71    74    1
    16    54    55   ar
    17    58    59   ar
    18    63    62    1
    19    38    41    1
    20    61    62    1
    21    74    76    1
    22    74    75    1
    23    62    65    1
    24    55    57   ar
    25    59    57   ar
    26    59    60    1
    27    41    42    1
    28    43    42   ar
    29    43    45   ar
    30    42    44   ar
    31    45    47   ar
    32    65    66    1
    33    77    78    1
    34    44    46   ar
    35    66    67    1
    36    47    46   ar
    37    47    48    1
    38    78    79    1
    39    79    80    2
    40    67    68    1
    41    28    27    1
    42    68    69    1
    43    18    16   ar
    44    18    17   ar
    45    27    29    1
    46    27    24    1
    47    16    14   ar
    48    87    85    1
    49    17    15   ar
    50    81    82    1
    51    85    82    1
    52    85    86    1
    53    24    23    1
    54    24    25    1
    55    23    21   am
    56    84    83    2
    57    14    13   ar
    58    82    83    1
    59    15    13   ar
    60    21    20    1
    61    21    22    2
    62    20    19    1
    63   105   104    1
    64    13    12    1
    65    25    26    2
    66    25    30   am
    67    98    97    1
    68    30    31    1
    69   104   106    1
    70   104   103    1
    71    97    94    1
    72    12     9    1
    73    35    34    1
    74    93    94    1
    75    88    89    1
    76     5     6    1
    77     5     2    1
    78    92    89    1
    79    31    34    1
    80    31    32    1
    81     6     7    1
    82   103   100    1
    83    94    95    1
    84     9    10    1
    85     9     8    1
    86    99    95   am
    87    99   100    1
    88    34    36    1
    89    89    90    1
    90     7     1    1
    91    10    11    2
    92    95    96    2
    93     2     1    1
    94     2     3    1
    95   100   101    1
    96    32    33    2
    97    90    91    2
    98     3     4    2
    99   101   102    2
