@<TRIPOS>MOLECULE
tmp/1w3vA00.pdb
 210 193 0 0 0
SMALL
GASTEIGER

@<TRIPOS>ATOM
      1  N         21.1840   35.8780   10.8760 N.3    85  ARG85      -0.1245
      2  CA        20.1950   35.4480    9.8690 C.3    85  ARG85       0.1563
      3  C         19.5270   34.1300   10.2210 C.2    85  ARG85       0.2260
      4  O         18.3040   34.0250   10.1850 O.2    85  ARG85      -0.2867
      5  CB        20.8710   35.2710    8.5000 C.3    85  ARG85       0.0307
      6  CG        21.4340   36.5200    7.8610 C.3    85  ARG85       0.0489
      7  CD        22.0580   36.2910    6.5190 C.3    85  ARG85       0.2205
      8  NE        21.0480   35.9810    5.5140 N.pl3  85  ARG85      -0.0865
      9  CZ        21.2890   35.4730    4.3160 C.cat  85  ARG85       0.5346
     10  NH1       22.5150   35.1380    3.9240 N.pl3  85  ARG85       0.1354
     11  NH2       20.2750   35.2690    3.4930 N.pl3  85  ARG85       0.1354
     12  N         13.0990   32.9330   15.2060 N.3    89  TYR89      -0.1241
     13  CA        12.6430   34.3070   15.3910 C.3    89  TYR89       0.1605
     14  C         11.3720   34.1270   16.2130 C.2    89  TYR89       0.2264
     15  O         10.3430   33.7170   15.6910 O.2    89  TYR89      -0.2867
     16  CB        12.2650   34.9780   14.0420 C.3    89  TYR89       0.0534
     17  CG        13.4360   35.2510   13.1050 C.ar   89  TYR89      -0.0201
     18  CD1       14.3660   34.2640   12.7990 C.ar   89  TYR89      -0.0009
     19  CD2       13.5900   36.4710   12.4890 C.ar   89  TYR89      -0.0009
     20  CE1       15.4100   34.4950   11.9200 C.ar   89  TYR89       0.0417
     21  CE2       14.6450   36.7220   11.6160 C.ar   89  TYR89       0.0417
     22  CZ        15.5500   35.7300   11.3370 C.ar   89  TYR89       0.1957
     23  OH        16.5790   35.9950   10.4520 O.3    89  TYR89      -0.2866
     24  N         14.6000   30.4460   10.0510 N.3   102  CYS102     -0.1235
     25  CA        15.3320   30.7550    8.8280 C.3   102  CYS102      0.1677
     26  C         16.5610   29.8580    8.7310 C.2   102  CYS102      0.2270
     27  O         17.2390   29.6510    9.7230 O.2   102  CYS102     -0.2867
     28  CB        15.7800   32.2190    8.7990 C.3   102  CYS102      0.0956
     29  SG        16.8830   32.6930    7.4660 S.3   102  CYS102     -0.0801
     30  N         18.0680   32.1340    1.1470 N.3   181  SER181     -0.1217
     31  CA        17.5190   31.6440    2.4020 C.3   181  SER181      0.1889
     32  C         16.1040   31.1110    2.2370 C.2   181  SER181      0.2288
     33  O         15.3690   31.5580    1.3660 O.2   181  SER181     -0.2866
     34  CB        17.4760   32.7310    3.4500 C.3   181  SER181      0.2089
     35  OG        16.6230   33.7890    3.0020 O.3   181  SER181     -0.2183
     36  N         12.6780   30.7590    4.6930 N.3   183  VAL183     -0.1245
     37  CA        12.1030   31.1640    5.9490 C.3   183  VAL183      0.1561
     38  C         10.7890   30.4400    6.0940 C.2   183  VAL183      0.2260
     39  O          9.9300   30.5370    5.2250 O.2   183  VAL183     -0.2867
     40  CB        11.8950   32.6890    6.0400 C.3   183  VAL183      0.0252
     41  CG1       11.4640   33.0530    7.4690 C.3   183  VAL183      0.0019
     42  CG2       13.1370   33.4190    5.6740 C.3   183  VAL183      0.0019
     43  N          7.6710   30.6710    8.0280 N.3   185  ILE185     -0.1245
     44  CA         6.9270   31.6080    8.8810 C.3   185  ILE185      0.1561
     45  C          5.5930   31.0350    9.2860 C.2   185  ILE185      0.2260
     46  O          4.8340   30.5430    8.4290 O.2   185  ILE185     -0.2867
     47  CB         6.6750   32.9340    8.1490 C.3   185  ILE185      0.0252
     48  CG1        7.9700   33.5000    7.5650 C.3   185  ILE185      0.0019
     49  CG2        5.9860   33.9710    9.0990 C.3   185  ILE185      0.0019
     50  CD1        7.7070   34.6600    6.5780 C.3   185  ILE185      0.0001
     51  N          2.1130   32.1860   10.8800 N.3   187  TYR187     -0.1241
     52  CA         1.1700   33.2220   11.2900 C.3   187  TYR187      0.1605
     53  C          0.0440   32.5100   12.0290 C.2   187  TYR187      0.2264
     54  O         -0.6830   31.7370   11.4320 O.2   187  TYR187     -0.2867
     55  CB         0.6110   33.9570   10.0880 C.3   187  TYR187      0.0534
     56  CG         1.5020   35.0480    9.5370 C.ar  187  TYR187     -0.0201
     57  CD1        1.4780   36.3100   10.0880 C.ar  187  TYR187     -0.0009
     58  CD2        2.3690   34.8280    8.4720 C.ar  187  TYR187     -0.0009
     59  CE1        2.2540   37.3320    9.6270 C.ar  187  TYR187      0.0417
     60  CE2        3.1100   35.8480    7.9570 C.ar  187  TYR187      0.0417
     61  CZ         3.0750   37.1160    8.5500 C.ar  187  TYR187      0.1957
     62  OH         3.8110   38.1820    8.0900 O.3   187  TYR187     -0.2866
     63  N          2.0720   43.2080    8.3540 N.3   209  PHE209     -0.1241
     64  CA         3.4010   43.6660    7.9480 C.3   209  PHE209      0.1605
     65  C          3.2140   44.7590    6.9100 C.2   209  PHE209      0.2264
     66  O          2.4360   44.6170    5.9700 O.2   209  PHE209     -0.2867
     67  CB         4.2250   42.4810    7.3940 C.3   209  PHE209      0.0534
     68  CG         5.7180   42.7520    7.2770 C.ar  209  PHE209     -0.0203
     69  CD1        6.5200   42.8110    8.4010 C.ar  209  PHE209     -0.0042
     70  CD2        6.2950   42.9740    6.0450 C.ar  209  PHE209     -0.0042
     71  CE1        7.8750   43.0510    8.2950 C.ar  209  PHE209     -0.0003
     72  CE2        7.6540   43.2010    5.9410 C.ar  209  PHE209     -0.0003
     73  CZ         8.4470   43.2380    7.0750 C.ar  209  PHE209     -0.0000
     74  N          6.6260   47.2950    1.5760 N.3   212  HIS212     -0.1241
     75  CA         8.0530   47.1240    1.3450 C.3   212  HIS212      0.1621
     76  C          8.2820   46.5730   -0.0510 C.2   212  HIS212      0.2264
     77  O          7.3530   46.0620   -0.6970 O.2   212  HIS212     -0.2867
     78  CB         8.6340   46.1140    2.3500 C.3   212  HIS212      0.0745
     79  CG         8.1020   44.7250    2.1870 C.ar  212  HIS212      0.0817
     80  ND1        6.8660   44.3330    2.6510 N.ar  212  HIS212     -0.2268
     81  CD2        8.6340   43.6390    1.5780 C.ar  212  HIS212      0.1154
     82  CE1        6.6690   43.0620    2.3480 C.ar  212  HIS212      0.1986
     83  NE2        7.7250   42.6170    1.6970 N.ar  212  HIS212     -0.2212
     84  N         11.0300   43.7670   -1.7810 N.3   214  ASP214     -0.1225
     85  CA        11.8600   42.6600   -1.3160 C.3   214  ASP214      0.1805
     86  C         13.3660   42.8790   -1.5300 C.2   214  ASP214      0.2597
     87  O         13.8030   43.5160   -2.4990 O.2   214  ASP214     -0.2718
     88  CB        11.5300   41.3750   -2.0660 C.3   214  ASP214      0.1424
     89  CG        10.2570   40.7480   -1.6180 C.2   214  ASP214      0.3668
     90  OD1        9.6320   41.3150   -0.6960 O.co2 214  ASP214     -0.2456
     91  OD2        9.7860   39.7100   -2.0840 O.co2 214  ASP214     -0.2456
     92  N         14.1340   42.3320   -0.5960 N.am  215  VAL215     -0.1980
     93  CA        15.5880   42.2140   -0.6670 C.3   215  VAL215      0.1595
     94  C         15.8760   40.8300   -1.2490 C.2   215  VAL215      0.2287
     95  O         15.8790   39.8210   -0.5670 O.2   215  VAL215     -0.2864
     96  CB        16.2190   42.3840    0.7200 C.3   215  VAL215      0.0276
     97  CG1       17.7090   42.2380    0.6390 C.3   215  VAL215      0.0022
     98  CG2       15.8790   43.7480    1.2990 C.3   215  VAL215      0.0022
     99  N         11.8930   36.4570   -5.5020 N.3   219  THR219     -0.1218
    100  CA        11.3490   35.7720   -4.3420 C.3   219  THR219      0.1862
    101  C         10.4150   34.6780   -4.8260 C.2   219  THR219      0.2287
    102  O          9.5950   34.9240   -5.7270 O.2   219  THR219     -0.2866
    103  CB        10.5970   36.7880   -3.5050 C.3   219  THR219      0.1770
    104  OG1       11.5410   37.7770   -3.0500 O.3   219  THR219     -0.2211
    105  CG2        9.9770   36.1330   -2.2540 C.3   219  THR219      0.0375
    106  N          7.7410   32.0380   -3.4160 N.3   221  LEU221     -0.1245
    107  CA         6.9390   31.9760   -2.1770 C.3   221  LEU221      0.1561
    108  C          5.8110   30.9710   -2.2050 C.2   221  LEU221      0.2260
    109  O          4.9910   30.9890   -3.1310 O.2   221  LEU221     -0.2867
    110  CB         6.3530   33.3620   -1.8820 C.3   221  LEU221      0.0270
    111  CG         5.3810   33.4270   -0.7150 C.3   221  LEU221      0.0019
    112  CD1        6.0870   33.2300    0.6030 C.3   221  LEU221      0.0001
    113  CD2        4.6950   34.7900   -0.7660 C.3   221  LEU221      0.0001
    114  N          2.4950   29.8760    0.0340 N.3   223  GLN223     -0.1245
    115  CA         1.6340   30.2300    1.1600 C.3   223  GLN223      0.1566
    116  C          0.4740   29.3130    1.1950 C.2   223  GLN223      0.2260
    117  O         -0.0140   28.8450    0.1580 O.2   223  GLN223     -0.2867
    118  CB         1.1210   31.6590    1.0590 C.3   223  GLN223      0.0367
    119  CG         2.1980   32.6940    1.0200 C.3   223  GLN223      0.0905
    120  CD         1.6460   34.0580    1.2670 C.2   223  GLN223      0.2608
    121  OE1        0.5910   34.4290    0.6680 O.2   223  GLN223     -0.2717
    122  NE2        2.2320   34.7710    2.2200 N.am  223  GLN223     -0.0878
    123  N         -1.9160   38.8050    0.8900 N.3   229  LEU229     -0.1245
    124  CA        -1.0400   39.7890    0.2530 C.3   229  LEU229      0.1561
    125  C         -1.7380   40.8160   -0.6050 C.2   229  LEU229      0.2260
    126  O         -2.7390   40.5240   -1.2290 O.2   229  LEU229     -0.2867
    127  CB        -0.0120   39.0940   -0.6370 C.3   229  LEU229      0.0270
    128  CG         0.9810   38.2200    0.1160 C.3   229  LEU229      0.0019
    129  CD1        1.8130   37.4140   -0.8870 C.3   229  LEU229      0.0001
    130  CD2        1.8840   39.0310    1.0310 C.3   229  LEU229      0.0001
    131  N          4.5030   45.7210   -1.7880 N.3   268  HIS268     -0.1241
    132  CA         3.4470   44.8680   -1.3090 C.3   268  HIS268      0.1621
    133  C          3.4140   44.8670    0.1850 C.2   268  HIS268      0.2264
    134  O          4.3990   45.2900    0.8130 O.2   268  HIS268     -0.2867
    135  CB         3.6050   43.4340   -1.9000 C.3   268  HIS268      0.0745
    136  CG         4.9400   42.8080   -1.6480 C.ar  268  HIS268      0.0817
    137  ND1        6.0830   43.1920   -2.3130 N.ar  268  HIS268     -0.2268
    138  CD2        5.2990   41.8000   -0.8130 C.ar  268  HIS268      0.1154
    139  CE1        7.1040   42.4750   -1.8640 C.ar  268  HIS268      0.1986
    140  NE2        6.6590   41.6310   -0.9440 N.ar  268  HIS268     -0.2212
    141  N          1.1990   42.8300    3.8620 N.3   270  VAL270     -0.1245
    142  CA         0.5030   41.6590    4.3640 C.3   270  VAL270      0.1561
    143  C         -0.6470   42.0720    5.2280 C.2   270  VAL270      0.2260
    144  O         -0.4460   42.6930    6.2930 O.2   270  VAL270     -0.2867
    145  CB         1.4280   40.8000    5.2410 C.3   270  VAL270      0.0252
    146  CG1        0.7080   39.5660    5.7810 C.3   270  VAL270      0.0019
    147  CG2        2.7080   40.4140    4.4520 C.3   270  VAL270      0.0019
    148  N          3.6460   31.0070    5.6100 N.3   279  SER279     -0.1217
    149  CA         4.2420   31.8060    4.5410 C.3   279  SER279      0.1889
    150  C          5.6830   31.3310    4.4750 C.2   279  SER279      0.2288
    151  O          6.4320   31.4560    5.4550 O.2   279  SER279     -0.2866
    152  CB         4.1510   33.2680    4.8540 C.3   279  SER279      0.2089
    153  OG         4.6460   34.0620    3.8240 O.3   279  SER279     -0.2183
    154  N          8.7600   31.6790    2.1940 N.3   281  PRO281     -0.2116
    155  CA         9.5480   32.2000    1.0870 C.3   281  PRO281      0.1372
    156  C         10.9460   31.6050    0.9520 C.2   281  PRO281      0.2244
    157  O         11.5910   31.1950    1.9210 O.2   281  PRO281     -0.2868
    158  CB         9.7340   33.6670    1.4690 C.3   281  PRO281      0.0268
    159  CG         9.6990   33.6480    2.9530 C.3   281  PRO281      0.0207
    160  CD         8.6580   32.6430    3.3090 C.3   281  PRO281      0.0892
    161  N         14.2470   33.2630   -0.7440 N.3   283  PHE283     -0.1241
    162  CA        14.8080   34.4760   -1.3130 C.3   283  PHE283      0.1605
    163  C         15.9870   34.0940   -2.1720 C.2   283  PHE283      0.2264
    164  O         16.9980   33.5990   -1.6720 O.2   283  PHE283     -0.2867
    165  CB        15.1840   35.4180   -0.1620 C.3   283  PHE283      0.0534
    166  CG        13.9930   35.8880    0.6290 C.ar  283  PHE283     -0.0203
    167  CD1       13.0910   36.7630    0.0500 C.ar  283  PHE283     -0.0042
    168  CD2       13.7200   35.4150    1.9090 C.ar  283  PHE283     -0.0042
    169  CE1       11.9750   37.1860    0.7260 C.ar  283  PHE283     -0.0003
    170  CE2       12.5920   35.8520    2.5970 C.ar  283  PHE283     -0.0003
    171  CZ        11.7300   36.7420    1.9980 C.ar  283  PHE283     -0.0000
    172  N         19.0400   34.7820   -3.6980 N.3   285  ASN285     -0.1240
    173  CA        20.1760   35.6640   -3.5170 C.3   285  ASN285      0.1653
    174  C         21.3390   35.0440   -4.2630 C.2   285  ASN285      0.2266
    175  O         21.4590   33.8040   -4.3350 O.2   285  ASN285     -0.2867
    176  CB        20.5100   35.7730   -2.0330 C.3   285  ASN285      0.1155
    177  CG        19.4490   36.4840   -1.2280 C.2   285  ASN285      0.2627
    178  OD1       18.8300   37.4490   -1.6930 O.2   285  ASN285     -0.2716
    179  ND2       19.2240   36.0220    0.0290 N.am  285  ASN285     -0.0877
    180  N         22.9010   42.8580   -0.1280 N.3   315  LEU315     -0.1245
    181  CA        22.1710   42.0480    0.8350 C.3   315  LEU315      0.1561
    182  C         22.3780   42.5220    2.2590 C.2   315  LEU315      0.2260
    183  O         21.4400   42.6450    3.0180 O.2   315  LEU315     -0.2867
    184  CB        22.5670   40.5700    0.7170 C.3   315  LEU315      0.0270
    185  CG        21.7750   39.5730    1.5730 C.3   315  LEU315      0.0019
    186  CD1       20.3220   39.5720    1.1940 C.3   315  LEU315      0.0001
    187  CD2       22.3480   38.1730    1.4320 C.3   315  LEU315      0.0001
    188  N         19.0520   43.8660    4.3630 N.3   319  LEU319     -0.1245
    189  CA        18.4450   43.1700    5.4860 C.3   319  LEU319      0.1561
    190  C         18.3370   44.0840    6.6920 C.2   319  LEU319      0.2260
    191  O         17.3260   44.0630    7.4090 O.2   319  LEU319     -0.2867
    192  CB        19.1740   41.8860    5.8100 C.3   319  LEU319      0.0270
    193  CG        18.9720   40.8480    4.6690 C.3   319  LEU319      0.0019
    194  CD1       19.5800   39.5510    5.0530 C.3   319  LEU319      0.0001
    195  CD2       17.5160   40.6300    4.2330 C.3   319  LEU319      0.0001
    196  N         15.4560   46.6590    6.0520 N.3   322  LEU322     -0.1245
    197  CA        14.1370   46.0990    6.2950 C.3   322  LEU322      0.1561
    198  C         13.7160   46.1390    7.7500 C.2   322  LEU322      0.2260
    199  O         12.5410   46.3910    8.0780 O.2   322  LEU322     -0.2867
    200  CB        14.0980   44.6350    5.8610 C.3   322  LEU322      0.0270
    201  CG        13.8430   44.4910    4.3810 C.3   322  LEU322      0.0019
    202  CD1       13.8930   43.0770    4.0870 C.3   322  LEU322      0.0001
    203  CD2       12.4960   44.8940    3.9570 C.3   322  LEU322      0.0001
    204  N         11.4880   40.9720   12.7730 N.3   329  THR329     -0.1218
    205  CA        10.5210   39.8860   12.6540 C.3   329  THR329      0.1862
    206  C         10.8520   38.7600   13.6250 C.2   329  THR329      0.2287
    207  O         10.0730   37.8090   13.6070 O.2   329  THR329     -0.2866
    208  CB        10.4390   39.3300   11.2150 C.3   329  THR329      0.1770
    209  OG1       11.6890   38.7590   10.8260 O.3   329  THR329     -0.2211
    210  CG2       10.1690   40.4360   10.1700 C.3   329  THR329      0.0375
@<TRIPOS>BOND
     1   102   101    2
     2    99   100    1
     3   101   100    1
     4   100   103    1
     5   175   174    2
     6   174   173    1
     7   172   173    1
     8   173   176    1
     9   103   104    1
    10   103   105    1
    11   106   107    1
    12   109   108    2
    13    87    86    2
    14   137   139   ar
    15   137   136   ar
    16   108   107    1
    17   107   110    1
    18   163   164    2
    19   163   162    1
    20    91    89   ar
    21    88    89    1
    22    88    85    1
    23   176   177    1
    24   135   136    1
    25   135   132    1
    26   110   111    1
    27   139   140   ar
    28   131   132    1
    29    84    85    1
    30   178   177    2
    31   136   138   ar
    32    89    90   ar
    33    86    85    1
    34    86    92   am
    35   162   161    1
    36   162   165    1
    37   132   133    1
    38    94    93    1
    39    94    95    2
    40   126   125    2
    41   177   179   am
    42   140   138   ar
    43   129   128    1
    44   113   111    1
    45   111   112    1
    46    77    76    2
    47    93    92    1
    48    93    96    1
    49   127   128    1
    50   127   124    1
    51   125   124    1
    52   165   166    1
    53   180   181    1
    54    76    75    1
    55   114   115    1
    56   167   166   ar
    57   167   169   ar
    58   128   130    1
    59   117   116    2
    60   133   134    2
    61   124   123    1
    62   166   168   ar
    63    97    96    1
    64   121   120    2
    65   184   181    1
    66   184   185    1
    67    96    98    1
    68   169   171   ar
    69   181   182    1
    70   156   155    1
    71   156   157    2
    72   119   118    1
    73   119   120    1
    74   118   115    1
    75   155   158    1
    76   155   154    1
    77    30    31    1
    78   115   116    1
    79   186   185    1
    80   120   122   am
    81    75    74    1
    82    75    78    1
    83    33    32    2
    84   187   185    1
    85   158   159    1
    86    81    83   ar
    87    81    79   ar
    88    83    82   ar
    89   168   170   ar
    90   171   170   ar
    91    79    78    1
    92    79    80   ar
    93   154   160    1
    94    32    31    1
    95   182   183    2
    96    82    80   ar
    97    31    34    1
    98   159   160    1
    99    35    34    1
   100    11     9    1
   101   153   152    1
   102   141   142    1
   103    10     9    1
   104   203   201    1
   105   202   201    1
   106   195   193    1
   107     9     8    2
   108   188   189    1
   109   142   143    1
   110   142   145    1
   111   201   200    1
   112   147   145    1
   113   150   149    1
   114   150   151    2
   115   149   152    1
   116   149   148    1
   117   193   194    1
   118   193   192    1
   119    36    37    1
   120    39    38    2
   121   143   144    2
   122   145   146    1
   123   189   192    1
   124   189   190    1
   125     8     7    1
   126    42    40    1
   127   200   197    1
   128    72    70   ar
   129    72    73   ar
   130    37    40    1
   131    37    38    1
   132    66    65    2
   133    40    41    1
   134    70    68   ar
   135   196   197    1
   136   197   198    1
   137     7     6    1
   138    50    48    1
   139   190   191    2
   140    65    64    1
   141    73    71   ar
   142    68    67    1
   143    68    69   ar
   144    67    64    1
   145    29    28    1
   146    48    47    1
   147   198   199    2
   148     6     5    1
   149    64    63    1
   150    60    58   ar
   151    60    61   ar
   152    43    44    1
   153    62    61    1
   154    47    44    1
   155    47    49    1
   156    71    69   ar
   157    46    45    2
   158    58    56   ar
   159     5     2    1
   160    61    59   ar
   161    26    25    1
   162    26    27    2
   163    28    25    1
   164    25    24    1
   165    44    45    1
   166    56    55    1
   167    56    57   ar
   168    59    57   ar
   169     2     3    1
   170     2     1    1
   171    55    52    1
   172   210   208    1
   173     4     3    2
   174    23    22    1
   175   209   208    1
   176    51    52    1
   177   208   205    1
   178    52    53    1
   179    22    21   ar
   180    22    20   ar
   181    54    53    2
   182    21    19   ar
   183    20    18   ar
   184    19    17   ar
   185   205   204    1
   186   205   206    1
   187    18    17   ar
   188    17    16    1
   189   207   206    2
   190    16    13    1
   191    12    13    1
   192    13    14    1
   193    15    14    2
