@<TRIPOS>MOLECULE
tmp/1w3yA00.pdb
 184 178 0 0 0
SMALL
GASTEIGER

@<TRIPOS>ATOM
      1  N         17.9980   -5.3790   29.9350 N.3   121  ASN121     -0.1225
      2  CA        17.3320   -6.6770   29.9830 C.3   121  ASN121      0.1785
      3  C         17.2320   -7.3330   28.6030 C.2   121  ASN121      0.2597
      4  O         16.6670   -6.7620   27.6670 O.2   121  ASN121     -0.2718
      5  CB        15.9390   -6.4990   30.6020 C.3   121  ASN121      0.1169
      6  CG        15.1990   -7.8070   30.7730 C.2   121  ASN121      0.2627
      7  OD1       15.6780   -8.8660   30.3710 O.2   121  ASN121     -0.2716
      8  ND2       14.0250   -7.7420   31.3910 N.am  121  ASN121     -0.0877
      9  N         17.7950   -8.5340   28.4820 N.am  122  TRP122     -0.1962
     10  CA        17.7780   -9.2850   27.2260 C.3   122  TRP122      0.1771
     11  C         16.3530   -9.5030   26.7170 C.2   122  TRP122      0.2620
     12  O         16.1170   -9.5770   25.5120 O.2   122  TRP122     -0.2715
     13  CB        18.4160  -10.6660   27.4200 C.3   122  TRP122      0.0590
     14  CG        17.5960  -11.5460   28.3250 C.ar  122  TRP122      0.0006
     15  CD1       17.5770  -11.5220   29.6920 C.ar  122  TRP122      0.0946
     16  CD2       16.5880  -12.4880   27.9280 C.ar  122  TRP122      0.0152
     17  NE1       16.6160  -12.3810   30.1690 N.ar  122  TRP122     -0.2442
     18  CE2       15.9940  -12.9860   29.1090 C.ar  122  TRP122      0.0810
     19  CE3       16.1240  -12.9540   26.6890 C.ar  122  TRP122      0.0012
     20  CZ2       14.9590  -13.9290   29.0890 C.ar  122  TRP122      0.0191
     21  CZ3       15.0940  -13.8920   26.6690 C.ar  122  TRP122      0.0001
     22  CH2       14.5230  -14.3680   27.8620 C.ar  122  TRP122      0.0015
     23  N         15.4120   -9.6260   27.6460 N.am  123  TRP123     -0.1960
     24  CA        14.0210   -9.8840   27.2960 C.3   123  TRP123      0.1771
     25  C         13.4320   -8.8740   26.3270 C.2   123  TRP123      0.2619
     26  O         12.6530   -9.2350   25.4450 O.2   123  TRP123     -0.2715
     27  CB        13.1600   -9.9190   28.5500 C.3   123  TRP123      0.0590
     28  CG        11.7750  -10.4160   28.2970 C.ar  123  TRP123      0.0006
     29  CD1       11.3640  -11.7140   28.2630 C.ar  123  TRP123      0.0946
     30  CD2       10.6220   -9.6200   28.0000 C.ar  123  TRP123      0.0152
     31  NE1       10.0230  -11.7800   27.9640 N.ar  123  TRP123     -0.2442
     32  CE2        9.5440  -10.5080   27.7970 C.ar  123  TRP123      0.0810
     33  CE3       10.3970   -8.2420   27.8840 C.ar  123  TRP123      0.0012
     34  CZ2        8.2550  -10.0620   27.4820 C.ar  123  TRP123      0.0191
     35  CZ3        9.1120   -7.7980   27.5700 C.ar  123  TRP123      0.0001
     36  CH2        8.0600   -8.7080   27.3740 C.ar  123  TRP123      0.0015
     37  N         13.7880   -7.6080   26.4990 N.am  124  ASP124     -0.1971
     38  CA        13.2790   -6.5680   25.6190 C.3   124  ASP124      0.1709
     39  C         13.8620   -6.7150   24.2170 C.2   124  ASP124      0.2293
     40  O         13.1570   -6.5430   23.2220 O.2   124  ASP124     -0.2864
     41  CB        13.6120   -5.1870   26.1860 C.3   124  ASP124      0.1436
     42  CG        12.8300   -4.8730   27.4450 C.2   124  ASP124      0.3671
     43  OD1       11.5800   -4.8560   27.3810 O.co2 124  ASP124     -0.2456
     44  OD2       13.4600   -4.6450   28.4980 O.co2 124  ASP124     -0.2456
     45  N         19.3440  -15.3720   24.5190 N.3   167  ARG167     -0.1245
     46  CA        20.6080  -14.7630   24.9410 C.3   167  ARG167      0.1563
     47  C         21.7900  -15.3100   24.1440 C.2   167  ARG167      0.2260
     48  O         22.9050  -15.4160   24.6560 O.2   167  ARG167     -0.2867
     49  CB        20.8540  -14.9790   26.4390 C.3   167  ARG167      0.0307
     50  CG        20.0150  -14.0840   27.3450 C.3   167  ARG167      0.0489
     51  CD        20.7360  -13.8110   28.6610 C.3   167  ARG167      0.2205
     52  NE        20.8910  -15.0100   29.4830 N.pl3 167  ARG167     -0.0865
     53  CZ        19.9990  -15.4260   30.3760 C.cat 167  ARG167      0.5346
     54  NH1       18.8800  -14.7400   30.5710 N.pl3 167  ARG167      0.1354
     55  NH2       20.2240  -16.5300   31.0770 N.pl3 167  ARG167      0.1354
     56  N         20.8400  -19.5200   27.0680 N.3   174  PHE174     -0.1241
     57  CA        20.1240  -20.5400   27.8180 C.3   174  PHE174      0.1605
     58  C         19.1260  -21.2550   26.9160 C.2   174  PHE174      0.2264
     59  O         18.6810  -20.7020   25.9100 O.2   174  PHE174     -0.2867
     60  CB        19.4340  -19.9270   29.0520 C.3   174  PHE174      0.0534
     61  CG        18.2170  -19.0840   28.7440 C.ar  174  PHE174     -0.0203
     62  CD1       16.9650  -19.6750   28.5780 C.ar  174  PHE174     -0.0042
     63  CD2       18.3130  -17.6960   28.6870 C.ar  174  PHE174     -0.0042
     64  CE1       15.8240  -18.8940   28.3670 C.ar  174  PHE174     -0.0003
     65  CE2       17.1810  -16.9050   28.4750 C.ar  174  PHE174     -0.0003
     66  CZ        15.9340  -17.5060   28.3160 C.ar  174  PHE174     -0.0000
     67  N          8.7790  -18.9940   27.9510 N.3   180  ASN180     -0.1240
     68  CA         9.7370  -18.3180   27.0780 C.3   180  ASN180      0.1653
     69  C          9.7770  -18.9900   25.7070 C.2   180  ASN180      0.2266
     70  O          9.8810  -18.3180   24.6780 O.2   180  ASN180     -0.2867
     71  CB        11.1360  -18.3350   27.7090 C.3   180  ASN180      0.1155
     72  CG        11.3050  -17.2820   28.7940 C.2   180  ASN180      0.2627
     73  OD1       12.1330  -17.4300   29.6950 O.2   180  ASN180     -0.2716
     74  ND2       10.5360  -16.2050   28.7020 N.am  180  ASN180     -0.0877
     75  N         12.7440  -27.5060   34.3260 N.3   219  GLU219     -0.1245
     76  CA        11.5950  -26.6550   34.0140 C.3   219  GLU219      0.1567
     77  C         10.5270  -27.3520   33.1680 C.2   219  GLU219      0.2260
     78  O         10.8450  -28.1670   32.2960 O.2   219  GLU219     -0.2867
     79  CB        12.0890  -25.3920   33.3000 C.3   219  GLU219      0.0388
     80  CG        13.2760  -24.7400   34.0040 C.3   219  GLU219      0.1160
     81  CD        13.8860  -23.5940   33.2210 C.2   219  GLU219      0.3649
     82  OE1       13.8250  -23.6250   31.9720 O.co2 219  GLU219     -0.2457
     83  OE2       14.4440  -22.6710   33.8540 O.co2 219  GLU219     -0.2457
     84  N          9.6850  -23.1650   36.6560 N.3   229  ASP229     -0.1225
     85  CA        10.4000  -22.3350   35.7010 C.3   229  ASP229      0.1805
     86  C         11.5470  -21.6830   36.4510 C.2   229  ASP229      0.2598
     87  O         11.6250  -21.7750   37.6820 O.2   229  ASP229     -0.2718
     88  CB         9.5030  -21.2780   35.0460 C.3   229  ASP229      0.1424
     89  CG         9.9180  -20.9910   33.6010 C.2   229  ASP229      0.3668
     90  OD1       11.1310  -20.8070   33.3560 O.co2 229  ASP229     -0.2456
     91  OD2        9.0420  -20.9550   32.7110 O.co2 229  ASP229     -0.2456
     92  N         12.4460  -21.0340   35.7190 N.am  230  HIS230     -0.1961
     93  CA        13.6020  -20.3970   36.3330 C.3   230  HIS230      0.1787
     94  C         14.3440  -21.3760   37.2420 C.2   230  HIS230      0.2620
     95  O         14.6230  -21.0830   38.4050 O.2   230  HIS230     -0.2715
     96  CB        13.1780  -19.1450   37.1060 C.3   230  HIS230      0.0785
     97  CG        12.8710  -17.9750   36.2220 C.ar  230  HIS230      0.0821
     98  ND1       12.5390  -16.7320   36.7160 N.ar  230  HIS230     -0.2267
     99  CD2       12.8740  -17.8550   34.8720 C.ar  230  HIS230      0.1154
    100  CE1       12.3550  -15.8960   35.7100 C.ar  230  HIS230      0.1986
    101  NE2       12.5530  -16.5520   34.5800 N.ar  230  HIS230     -0.2212
    102  N         14.6440  -22.5430   36.6770 N.am  231  THR231     -0.1951
    103  CA        15.3740  -23.6170   37.3470 C.3   231  THR231      0.1897
    104  C         14.6260  -24.3880   38.4270 C.2   231  THR231      0.2313
    105  O         14.5060  -25.6110   38.3380 O.2   231  THR231     -0.2863
    106  CB        16.6950  -23.1040   37.9710 C.3   231  THR231      0.1794
    107  OG1       17.4790  -22.4540   36.9650 O.3   231  THR231     -0.2208
    108  CG2       17.5050  -24.2730   38.5460 C.3   231  THR231      0.0378
    109  N          4.6430  -17.7150   34.3930 N.3   239  TYR239     -0.1241
    110  CA         5.2540  -18.2460   33.1800 C.3   239  TYR239      0.1605
    111  C          4.3130  -19.2730   32.5600 C.2   239  TYR239      0.2264
    112  O          4.2830  -19.4470   31.3430 O.2   239  TYR239     -0.2867
    113  CB         6.6350  -18.8340   33.4970 C.3   239  TYR239      0.0534
    114  CG         7.6710  -17.7410   33.6460 C.ar  239  TYR239     -0.0201
    115  CD1        8.2830  -17.1770   32.5240 C.ar  239  TYR239     -0.0009
    116  CD2        7.9650  -17.1970   34.8960 C.ar  239  TYR239     -0.0009
    117  CE1        9.1580  -16.0940   32.6450 C.ar  239  TYR239      0.0417
    118  CE2        8.8360  -16.1150   35.0270 C.ar  239  TYR239      0.0417
    119  CZ         9.4260  -15.5690   33.8990 C.ar  239  TYR239      0.1957
    120  OH        10.2700  -14.4900   34.0350 O.3   239  TYR239     -0.2866
    121  N          7.2960  -13.5610   41.2940 N.3   293  ARG293     -0.1245
    122  CA         7.4900  -12.1350   41.5170 C.3   293  ARG293      0.1563
    123  C          6.3940  -11.2270   40.9660 C.2   293  ARG293      0.2260
    124  O          6.3860  -10.0270   41.2460 O.2   293  ARG293     -0.2867
    125  CB         8.8580  -11.6950   40.9710 C.3   293  ARG293      0.0307
    126  CG         8.9740  -11.6180   39.4560 C.3   293  ARG293      0.0489
    127  CD        10.4000  -11.2010   39.0620 C.3   293  ARG293      0.2205
    128  NE        10.4740  -10.7040   37.6890 N.pl3 293  ARG293     -0.0865
    129  CZ        10.5050  -11.4750   36.6060 C.cat 293  ARG293      0.5346
    130  NH1       10.4790  -12.7960   36.7220 N.pl3 293  ARG293      0.1354
    131  NH2       10.5390  -10.9210   35.4000 N.pl3 293  ARG293      0.1354
    132  N          3.2990   -6.6160   41.2390 N.3   297  ARG297     -0.1245
    133  CA         2.8720   -5.7140   40.1650 C.3   297  ARG297      0.1563
    134  C          1.4360   -5.2630   40.4270 C.2   297  ARG297      0.2260
    135  O          0.5300   -6.0860   40.5130 O.2   297  ARG297     -0.2867
    136  CB         2.9600   -6.4310   38.8150 C.3   297  ARG297      0.0307
    137  CG         4.3770   -6.8590   38.4510 C.3   297  ARG297      0.0489
    138  CD         4.4120   -7.7040   37.1830 C.3   297  ARG297      0.2205
    139  NE         5.7740   -8.1390   36.8690 N.pl3 297  ARG297     -0.0865
    140  CZ         6.0850   -9.0090   35.9140 C.cat 297  ARG297      0.5346
    141  NH1        5.1320   -9.5510   35.1650 N.pl3 297  ARG297      0.1354
    142  NH2        7.3540   -9.3440   35.7100 N.pl3 297  ARG297      0.1354
    143  N         13.0670  -22.9830   45.2190 N.3   405  LEU405     -0.1245
    144  CA        13.4540  -21.6870   45.7740 C.3   405  LEU405      0.1561
    145  C         12.2760  -21.1080   46.5670 C.2   405  LEU405      0.2260
    146  O         11.1230  -21.2220   46.1340 O.2   405  LEU405     -0.2867
    147  CB        13.8230  -20.7320   44.6350 C.3   405  LEU405      0.0270
    148  CG        14.7720  -19.5830   44.9740 C.3   405  LEU405      0.0019
    149  CD1       16.1740  -20.1340   45.2030 C.3   405  LEU405      0.0001
    150  CD2       14.7830  -18.5790   43.8330 C.3   405  LEU405      0.0001
    151  N         11.1510  -15.4410   44.5760 N.3   408  GLU408     -0.1245
    152  CA        11.9460  -14.8490   43.5150 C.3   408  GLU408      0.1567
    153  C         11.9610  -13.3340   43.5740 C.2   408  GLU408      0.2260
    154  O         10.9150  -12.6830   43.5290 O.2   408  GLU408     -0.2867
    155  CB        11.4500  -15.2750   42.1320 C.3   408  GLU408      0.0388
    156  CG        12.2310  -14.5920   41.0070 C.3   408  GLU408      0.1160
    157  CD        11.9360  -15.1670   39.6380 C.2   408  GLU408      0.3649
    158  OE1       12.4980  -16.2320   39.2950 O.co2 408  GLU408     -0.2457
    159  OE2       11.1400  -14.5500   38.9060 O.co2 408  GLU408     -0.2457
    160  N         13.9270  -10.5850   41.4790 N.3   410  MET410     -0.1230
    161  CA        14.8190  -10.2720   40.3690 C.3   410  MET410      0.1702
    162  C         14.2520   -9.1090   39.5750 C.2   410  MET410      0.2592
    163  O         13.0560   -8.8190   39.6510 O.2   410  MET410     -0.2718
    164  CB        15.0540  -11.4910   39.4630 C.3   410  MET410      0.0401
    165  CG        13.8550  -12.0410   38.7330 C.3   410  MET410      0.0596
    166  SD        14.3900  -13.2400   37.4650 S.3   410  MET410     -0.1393
    167  CE        15.2140  -14.4840   38.4710 C.3   410  MET410      0.0692
    168  N         15.1190   -8.4400   38.8220 N.am  411  ASN411     -0.1974
    169  CA        14.7240   -7.2760   38.0350 C.3   411  ASN411      0.1688
    170  C         14.0480   -6.2460   38.9350 C.2   411  ASN411      0.2292
    171  O         13.1370   -5.5260   38.5150 O.2   411  ASN411     -0.2864
    172  CB        13.7940   -7.6790   36.8880 C.3   411  ASN411      0.1181
    173  CG        14.5150   -8.4640   35.8060 C.2   411  ASN411      0.2629
    174  OD1       15.7450   -8.5140   35.7760 O.2   411  ASN411     -0.2716
    175  ND2       13.7520   -9.0700   34.9060 N.am  411  ASN411     -0.0877
    176  N         12.0500   -6.6900   41.3760 N.3   413  GLU413     -0.1245
    177  CA        10.6610   -7.0030   41.7120 C.3   413  GLU413      0.1567
    178  C         10.5620   -7.9950   42.8700 C.2   413  GLU413      0.2260
    179  O         11.3750   -8.9110   42.9800 O.2   413  GLU413     -0.2867
    180  CB         9.9380   -7.5800   40.4880 C.3   413  GLU413      0.0388
    181  CG         9.9230   -6.6560   39.2750 C.3   413  GLU413      0.1160
    182  CD         9.0540   -7.1860   38.1470 C.2   413  GLU413      0.3649
    183  OE1        9.4530   -8.1720   37.4900 O.co2 413  GLU413     -0.2457
    184  OE2        7.9640   -6.6180   37.9240 O.co2 413  GLU413     -0.2457
@<TRIPOS>BOND
     1    40    39    2
     2    47    48    2
     3    47    46    1
     4    39    38    1
     5    45    46    1
     6    70    69    2
     7    46    49    1
     8    26    25    2
     9    12    11    2
    10    38    41    1
    11    38    37    1
    12    69    68    1
    13    59    58    2
    14    41    42    1
    15    25    37   am
    16    25    24    1
    17    49    50    1
    18    21    19   ar
    19    21    22   ar
    20    19    16   ar
    21    11    10    1
    22    11    23   am
    23    58    57    1
    24    56    57    1
    25    68    71    1
    26    68    67    1
    27    10    13    1
    28    10     9    1
    29    24    23    1
    30    24    27    1
    31    50    51    1
    32    36    34   ar
    33    36    35   ar
    34    43    42   ar
    35    13    14    1
    36    42    44   ar
    37    34    32   ar
    38    35    33   ar
    39     4     3    2
    40    71    72    1
    41    32    31   ar
    42    32    30   ar
    43    57    60    1
    44    22    20   ar
    45    33    30   ar
    46    16    14   ar
    47    16    18   ar
    48    31    29   ar
    49    30    28   ar
    50    29    28   ar
    51    28    27    1
    52    66    64   ar
    53    66    65   ar
    54    14    15   ar
    55    64    62   ar
    56    65    63   ar
    57     9     3   am
    58    62    61   ar
    59     3     2    1
    60    51    52    1
    61    63    61   ar
    62    74    72   am
    63    61    60    1
    64    72    73    2
    65    20    18   ar
    66    18    17   ar
    67    52    53    2
    68    15    17   ar
    69     1     2    1
    70     2     5    1
    71     7     6    2
    72    53    54    1
    73    53    55    1
    74     5     6    1
    75     6     8   am
    76   112   111    2
    77    82    81   ar
    78    78    77    2
    79   115   117   ar
    80   115   114   ar
    81   111   110    1
    82   117   119   ar
    83    91    89   ar
    84    77    76    1
    85   110   113    1
    86   110   109    1
    87    81    83   ar
    88    81    80    1
    89    79    80    1
    90    79    76    1
    91    90    89   ar
    92   113   114    1
    93    89    88    1
    94   114   116   ar
    95   119   120    1
    96   119   118   ar
    97    76    75    1
    98   101    99   ar
    99   101   100   ar
   100    99    97   ar
   101   116   118   ar
   102   175   173   am
   103    88    85    1
   104   141   140    1
   105   131   129    1
   106    85    86    1
   107    85    84    1
   108   100    98   ar
   109   142   140    1
   110    92    93    1
   111    92    86   am
   112   174   173    2
   113   173   172    1
   114   140   139    2
   115    97    98   ar
   116    97    96    1
   117    93    96    1
   118    93    94    1
   119    86    87    2
   120   129   130    1
   121   129   128    2
   122   102    94   am
   123   102   103    1
   124   139   138    1
   125   172   169    1
   126   107   106    1
   127   138   137    1
   128    94    95    2
   129   103   106    1
   130   103   104    1
   131   166   167    1
   132   166   165    1
   133   183   182   ar
   134   128   127    1
   135   184   182   ar
   136   106   108    1
   137   169   168    1
   138   169   170    1
   139   182   181    1
   140   105   104    2
   141   137   136    1
   142   171   170    2
   143   165   164    1
   144   136   133    1
   145   168   162   am
   146   159   157   ar
   147   127   126    1
   148   181   180    1
   149   158   157   ar
   150   126   125    1
   151   164   161    1
   152   162   163    2
   153   162   161    1
   154   157   156    1
   155   133   134    1
   156   133   132    1
   157   161   160    1
   158   134   135    2
   159   180   177    1
   160   123   124    2
   161   123   122    1
   162   125   122    1
   163   156   155    1
   164   121   122    1
   165   176   177    1
   166   177   178    1
   167   155   152    1
   168   178   179    2
   169   152   153    1
   170   152   151    1
   171   154   153    2
   172   150   148    1
   173   147   148    1
   174   147   144    1
   175   148   149    1
   176   143   144    1
   177   144   145    1
   178   146   145    2
