@<TRIPOS>MOLECULE
tmp/1w4aB00.pdb
 103 97 0 0 0
SMALL
GASTEIGER

@<TRIPOS>ATOM
      1  N         61.9610   59.4520   28.5540 N.3   133  ASN133     -0.1225
      2  CA        63.0150   58.9390   29.4020 C.3   133  ASN133      0.1785
      3  C         62.6270   57.9710   30.5180 C.2   133  ASN133      0.2598
      4  O         63.4990   57.2900   31.0650 O.2   133  ASN133     -0.2718
      5  CB        63.8100   60.1040   29.9850 C.3   133  ASN133      0.1169
      6  CG        64.5430   60.8930   28.9160 C.2   133  ASN133      0.2627
      7  OD1       65.0680   60.3160   27.9610 O.2   133  ASN133     -0.2716
      8  ND2       64.5940   62.2190   29.0770 N.am  133  ASN133     -0.0877
      9  N         61.3440   57.9000   30.8640 N.am  134  SER134     -0.1938
     10  CA        60.9240   56.9820   31.9180 C.3   134  SER134      0.2055
     11  C         61.1570   55.5310   31.4700 C.2   134  SER134      0.2644
     12  O         60.7000   55.1190   30.4050 O.2   134  SER134     -0.2714
     13  CB        59.4560   57.2170   32.2760 C.3   134  SER134      0.2130
     14  OG        59.2880   58.4800   32.9050 O.3   134  SER134     -0.2179
     15  N         61.8820   54.7810   32.2980 N.am  135  GLY135     -0.1939
     16  CA        62.2150   53.3960   32.0010 C.3   135  GLY135      0.2014
     17  C         61.1440   52.3740   32.3280 C.2   135  GLY135      0.2639
     18  O         60.6110   52.3300   33.4310 O.2   135  GLY135     -0.2714
     19  N         60.8400   51.5520   31.3370 N.am  136  LYS136     -0.1963
     20  CA        59.8490   50.5040   31.4280 C.3   136  LYS136      0.1728
     21  C         60.2910   49.2710   32.2200 C.2   136  LYS136      0.2617
     22  O         59.5140   48.7220   33.0040 O.2   136  LYS136     -0.2715
     23  CB        59.4220   50.1040   30.0160 C.3   136  LYS136      0.0311
     24  CG        58.8590   51.2720   29.2280 C.3   136  LYS136      0.0038
     25  CD        58.4580   50.8640   27.8280 C.3   136  LYS136      0.0206
     26  CE        58.1140   52.0870   26.9890 C.3   136  LYS136      0.1093
     27  NZ        59.2640   53.0270   26.8670 N.3   136  LYS136     -0.1314
     28  N         61.5200   48.8120   32.0240 N.am  137  THR137     -0.1937
     29  CA        61.9360   47.6450   32.7870 C.3   137  THR137      0.2013
     30  C         61.8530   47.8940   34.3010 C.2   137  THR137      0.2484
     31  O         61.3210   47.0610   35.0240 O.2   137  THR137     -0.2729
     32  CB        63.3360   47.1740   32.3730 C.3   137  THR137      0.1807
     33  OG1       63.2200   46.4370   31.1530 O.3   137  THR137     -0.2208
     34  CG2       63.9400   46.2590   33.4180 C.3   137  THR137      0.0379
     35  N         62.3640   49.0420   34.7970 N.am  138  PRO138     -0.2726
     36  CA        62.2760   49.2790   36.2500 C.3   138  PRO138      0.1402
     37  C         60.8240   49.3930   36.7200 C.2   138  PRO138      0.2269
     38  O         60.4760   48.9640   37.8180 O.2   138  PRO138     -0.2865
     39  CB        63.0560   50.5770   36.4430 C.3   138  PRO138      0.0296
     40  CG        64.1310   50.4930   35.3560 C.3   138  PRO138      0.0237
     41  CD        63.2910   50.0030   34.1660 C.3   138  PRO138      0.0939
     42  N         65.6910   39.8610   24.7020 N.3   160  GLU160     -0.1245
     43  CA        66.5640   40.9940   25.0040 C.3   160  GLU160      0.1567
     44  C         67.9960   40.4700   24.8720 C.2   160  GLU160      0.2260
     45  O         68.2840   39.3340   25.2370 O.2   160  GLU160     -0.2867
     46  CB        66.3260   41.5210   26.4220 C.3   160  GLU160      0.0388
     47  CG        65.0070   42.2610   26.6250 C.3   160  GLU160      0.1160
     48  CD        64.9420   43.5770   25.8610 C.2   160  GLU160      0.3649
     49  OE1       64.5300   43.5590   24.6910 O.co2 160  GLU160     -0.2457
     50  OE2       65.3140   44.6280   26.4240 O.co2 160  GLU160     -0.2457
     51  N         70.5910   40.3060   26.4900 N.3   162  LEU162     -0.1245
     52  CA        71.2090   40.2860   27.8070 C.3   162  LEU162      0.1561
     53  C         71.4030   38.8160   28.1700 C.2   162  LEU162      0.2260
     54  O         70.7860   37.9560   27.5430 O.2   162  LEU162     -0.2867
     55  CB        70.2880   40.9830   28.8070 C.3   162  LEU162      0.0270
     56  CG        70.0650   42.4740   28.5260 C.3   162  LEU162      0.0019
     57  CD1       68.9570   43.0130   29.4430 C.3   162  LEU162      0.0001
     58  CD2       71.3810   43.2440   28.7450 C.3   162  LEU162      0.0001
     59  N         58.2970   43.0880   22.8910 N.3   192  LYS192     -0.1245
     60  CA        58.8740   43.6320   21.6630 C.3   192  LYS192      0.1561
     61  C         59.0970   42.6660   20.5090 C.2   192  LYS192      0.2260
     62  O         58.7420   42.9730   19.3740 O.2   192  LYS192     -0.2867
     63  CB        60.2000   44.3350   21.9740 C.3   192  LYS192      0.0271
     64  CG        60.0380   45.7290   22.5780 C.3   192  LYS192      0.0035
     65  CD        61.3770   46.3270   23.0290 C.3   192  LYS192      0.0206
     66  CE        61.8230   45.7670   24.3810 C.3   192  LYS192      0.1093
     67  NZ        60.8200   46.0270   25.4650 N.3   192  LYS192     -0.1314
     68  N         56.0890   44.8300   29.2280 N.3   221  SER221     -0.1217
     69  CA        56.7040   46.0250   28.6750 C.3   221  SER221      0.1889
     70  C         56.6320   45.9500   27.1670 C.2   221  SER221      0.2288
     71  O         56.8340   44.8860   26.5720 O.2   221  SER221     -0.2866
     72  CB        58.1590   46.1160   29.1040 C.3   221  SER221      0.2089
     73  OG        58.8440   44.9370   28.7280 O.3   221  SER221     -0.2183
     74  N         57.8250   48.5830   23.8880 N.3   223  ASN223     -0.1240
     75  CA        58.3420   49.8580   23.4010 C.3   223  ASN223      0.1653
     76  C         57.8290   50.2310   22.0150 C.2   223  ASN223      0.2266
     77  O         58.0050   49.4910   21.0480 O.2   223  ASN223     -0.2867
     78  CB        59.8660   49.8590   23.4090 C.3   223  ASN223      0.1155
     79  CG        60.4300   50.4420   24.6910 C.2   223  ASN223      0.2627
     80  OD1       60.2400   49.8870   25.7750 O.2   223  ASN223     -0.2716
     81  ND2       61.1130   51.5790   24.5760 N.am  223  ASN223     -0.0877
     82  N         64.0010   56.4130   41.8980 N.3   277  TYR277     -0.1227
     83  CA        65.0090   55.3550   41.8730 C.3   277  TYR277      0.1736
     84  C         65.7920   55.3060   43.1640 C.2   277  TYR277      0.2596
     85  O         66.0120   56.3340   43.8010 O.2   277  TYR277     -0.2718
     86  CB        65.9980   55.5890   40.7280 C.3   277  TYR277      0.0548
     87  CG        65.4670   55.2630   39.3580 C.ar  277  TYR277     -0.0200
     88  CD1       65.4410   53.9440   38.8930 C.ar  277  TYR277     -0.0009
     89  CD2       64.9990   56.2710   38.5130 C.ar  277  TYR277     -0.0009
     90  CE1       64.9620   53.6370   37.6100 C.ar  277  TYR277      0.0417
     91  CE2       64.5190   55.9760   37.2340 C.ar  277  TYR277      0.0417
     92  CZ        64.5030   54.6580   36.7920 C.ar  277  TYR277      0.1957
     93  OH        64.0080   54.3690   35.5460 O.3   277  TYR277     -0.2866
     94  N         66.2140   54.1040   43.5410 N.am  278  GLY278     -0.1957
     95  CA        67.0280   53.9290   44.7330 C.3   278  GLY278      0.1869
     96  C         68.3440   53.3840   44.2090 C.2   278  GLY278      0.2309
     97  O         68.7490   53.7290   43.1060 O.2   278  GLY278     -0.2863
     98  N         69.3030   51.0850   40.3340 N.3   281  SER281     -0.1217
     99  CA        68.1200   51.2480   39.5160 C.3   281  SER281      0.1889
    100  C         66.8690   50.5580   40.0570 C.2   281  SER281      0.2288
    101  O         65.9860   50.2090   39.2800 O.2   281  SER281     -0.2866
    102  CB        68.3990   50.7390   38.1000 C.3   281  SER281      0.2089
    103  OG        69.4870   51.4270   37.5120 O.3   281  SER281     -0.2183
@<TRIPOS>BOND
     1    62    61    2
     2    61    60    1
     3    77    76    2
     4    60    63    1
     5    60    59    1
     6    63    64    1
     7    76    75    1
     8    64    65    1
     9    65    66    1
    10    75    78    1
    11    75    74    1
    12    78    79    1
    13    66    67    1
    14    81    79   am
    15    79    80    2
    16    49    48   ar
    17    42    43    1
    18    44    43    1
    19    44    45    2
    20    43    46    1
    21    48    50   ar
    22    48    47    1
    23    46    47    1
    24    51    52    1
    25    71    70    2
    26    27    26    1
    27    26    25    1
    28    70    69    1
    29    54    53    2
    30    52    53    1
    31    52    55    1
    32    25    24    1
    33     7     6    2
    34    56    58    1
    35    56    55    1
    36    56    57    1
    37     1     2    1
    38    69    72    1
    39    69    68    1
    40    73    72    1
    41     6     8   am
    42     6     5    1
    43    24    23    1
    44     2     5    1
    45     2     3    1
    46    23    20    1
    47    12    11    2
    48     3     9   am
    49     3     4    2
    50     9    10    1
    51    33    32    1
    52    19    20    1
    53    19    17   am
    54    20    21    1
    55    11    10    1
    56    11    15   am
    57    10    13    1
    58    16    15    1
    59    16    17    1
    60    28    21   am
    61    28    29    1
    62    21    22    2
    63    13    14    1
    64    17    18    2
    65    32    29    1
    66    32    34    1
    67    29    30    1
    68    41    35    1
    69    41    40    1
    70    30    35   am
    71    30    31    2
    72    35    36    1
    73    40    39    1
    74    93    92    1
    75    36    39    1
    76    36    37    1
    77    37    38    2
    78    92    91   ar
    79    92    90   ar
    80    91    89   ar
    81   103   102    1
    82    90    88   ar
    83   102    99    1
    84    89    87   ar
    85    88    87   ar
    86   101   100    2
    87    87    86    1
    88    99   100    1
    89    99    98    1
    90    86    83    1
    91    83    82    1
    92    83    84    1
    93    97    96    2
    94    84    94   am
    95    84    85    2
    96    94    95    1
    97    96    95    1
