@<TRIPOS>MOLECULE
tmp/1w4aB01.pdb
 86 82 0 0 0
SMALL
GASTEIGER

@<TRIPOS>ATOM
      1  N         45.2820   49.4870   22.9820 N.3   240  ARG240     -0.1245
      2  CA        43.8730   49.8340   22.9470 C.3   240  ARG240      0.1563
      3  C         42.9280   48.6450   23.0890 C.2   240  ARG240      0.2260
      4  O         42.0060   48.6620   23.8990 O.2   240  ARG240     -0.2867
      5  CB        43.5430   50.5500   21.6250 C.3   240  ARG240      0.0307
      6  CG        42.0660   50.9080   21.4730 C.3   240  ARG240      0.0489
      7  CD        41.7280   51.4470   20.0920 C.3   240  ARG240      0.2205
      8  NE        42.3540   52.7430   19.8320 N.pl3 240  ARG240     -0.0865
      9  CZ        43.2660   52.9560   18.8860 C.cat 240  ARG240      0.5346
     10  NH1       43.6550   51.9560   18.1110 N.pl3 240  ARG240      0.1354
     11  NH2       43.7880   54.1700   18.7160 N.pl3 240  ARG240      0.1354
     12  N         40.3990   49.1880   32.4050 N.3   261  ARG261     -0.1245
     13  CA        39.0770   48.7660   31.9440 C.3   261  ARG261      0.1563
     14  C         38.5470   48.0250   33.1660 C.2   261  ARG261      0.2260
     15  O         39.1140   47.0280   33.5710 O.2   261  ARG261     -0.2867
     16  CB        39.1700   47.8010   30.7650 C.3   261  ARG261      0.0307
     17  CG        39.6510   48.4500   29.4880 C.3   261  ARG261      0.0489
     18  CD        39.5910   47.4810   28.3160 C.3   261  ARG261      0.2205
     19  NE        38.2320   47.0180   28.0650 N.pl3 261  ARG261     -0.0865
     20  CZ        37.8590   46.3610   26.9710 C.cat 261  ARG261      0.5346
     21  NH1       38.7530   46.0870   26.0310 N.pl3 261  ARG261      0.1354
     22  NH2       36.5880   46.0150   26.7950 N.pl3 261  ARG261      0.1354
     23  N         35.5610   46.5390   33.5100 N.3   263  GLY263     -0.1210
     24  CA        34.6320   45.4640   33.2310 C.3   263  GLY263      0.1956
     25  C         33.8850   45.7280   31.9380 C.2   263  GLY263      0.2612
     26  O         33.8830   46.8450   31.4260 O.2   263  GLY263     -0.2717
     27  N         33.2510   44.6860   31.4160 N.am  264  GLU264     -0.1965
     28  CA        32.4820   44.7550   30.1770 C.3   264  GLU264      0.1733
     29  C         31.4510   45.8820   30.2220 C.2   264  GLU264      0.2617
     30  O         30.6020   45.9210   31.1260 O.2   264  GLU264     -0.2715
     31  CB        31.7690   43.4230   29.9690 C.3   264  GLU264      0.0429
     32  CG        30.9860   43.3090   28.6920 C.3   264  GLU264      0.1163
     33  CD        30.2150   42.0140   28.6460 C.2   264  GLU264      0.3649
     34  OE1       29.1190   41.9610   29.2410 O.co2 264  GLU264     -0.2457
     35  OE2       30.7230   41.0470   28.0350 O.co2 264  GLU264     -0.2457
     36  N         31.5200   46.7910   29.2550 N.am  265  GLY265     -0.1940
     37  CA        30.5740   47.8930   29.2260 C.3   265  GLY265      0.2014
     38  C         30.7440   48.9370   30.3310 C.2   265  GLY265      0.2639
     39  O         30.0330   49.9370   30.3360 O.2   265  GLY265     -0.2714
     40  N         31.6780   48.7250   31.2590 N.am  266  LEU266     -0.1963
     41  CA        31.8840   49.6820   32.3420 C.3   266  LEU266      0.1728
     42  C         32.8810   50.7720   31.9520 C.2   266  LEU266      0.2616
     43  O         33.5670   50.6660   30.9330 O.2   266  LEU266     -0.2715
     44  CB        32.3690   48.9620   33.5940 C.3   266  LEU266      0.0311
     45  CG        31.5240   47.7740   34.0370 C.3   266  LEU266      0.0022
     46  CD1       32.0390   47.3100   35.3820 C.3   266  LEU266      0.0001
     47  CD2       30.0480   48.1600   34.1350 C.3   266  LEU266      0.0001
     48  N         32.9700   51.8200   32.7610 N.am  267  GLN267     -0.1963
     49  CA        33.8760   52.9190   32.4360 C.3   267  GLN267      0.1733
     50  C         35.3440   52.6260   32.7100 C.2   267  GLN267      0.2616
     51  O         35.6780   51.7890   33.5390 O.2   267  GLN267     -0.2715
     52  CB        33.4730   54.1850   33.2060 C.3   267  GLN267      0.0408
     53  CG        32.0480   54.6660   32.9210 C.3   267  GLN267      0.0908
     54  CD        31.5890   55.7340   33.8910 C.2   267  GLN267      0.2608
     55  OE1       31.3130   56.8730   33.5010 O.2   267  GLN267     -0.2717
     56  NE2       31.5100   55.3750   35.1680 N.am  267  GLN267     -0.0878
     57  N         36.2160   53.3140   31.9870 N.am  268  ARG268     -0.1977
     58  CA        37.6460   53.1700   32.1960 C.3   268  ARG268      0.1597
     59  C         38.0450   54.1630   33.2730 C.2   268  ARG268      0.2287
     60  O         37.5900   55.3090   33.2710 O.2   268  ARG268     -0.2864
     61  CB        38.4340   53.5140   30.9360 C.3   268  ARG268      0.0334
     62  CG        38.6370   52.4000   29.9660 C.3   268  ARG268      0.0492
     63  CD        39.7020   52.8160   28.9640 C.3   268  ARG268      0.2205
     64  NE        39.9180   51.8190   27.9190 N.pl3 268  ARG268     -0.0865
     65  CZ        40.9780   51.0220   27.8450 C.cat 268  ARG268      0.5346
     66  NH1       41.9470   51.0890   28.7650 N.pl3 268  ARG268      0.1354
     67  NH2       41.0760   50.1660   26.8360 N.pl3 268  ARG268      0.1354
     68  N         37.6350   58.1510   32.8220 N.3   291  SER291     -0.1202
     69  CA        38.1610   58.7800   31.6010 C.3   291  SER291      0.2020
     70  C         37.4040   58.3430   30.3420 C.2   291  SER291      0.2619
     71  O         37.2210   57.1500   30.1050 O.2   291  SER291     -0.2717
     72  CB        39.6470   58.4590   31.4250 C.3   291  SER291      0.2103
     73  OG        39.8220   57.1770   30.8470 O.3   291  SER291     -0.2182
     74  N         36.9960   59.3150   29.5260 N.am  292  GLY292     -0.1942
     75  CA        36.2380   59.0250   28.3170 C.3   292  GLY292      0.2014
     76  C         36.9930   58.4410   27.1350 C.2   292  GLY292      0.2638
     77  O         38.2230   58.4510   27.0880 O.2   292  GLY292     -0.2714
     78  N         36.2370   57.9410   26.1630 N.am  293  LYS293     -0.1977
     79  CA        36.7970   57.3420   24.9540 C.3   293  LYS293      0.1596
     80  C         37.7700   58.2680   24.2260 C.2   293  LYS293      0.2287
     81  O         38.8100   57.8320   23.7420 O.2   293  LYS293     -0.2864
     82  CB        35.6630   56.9660   23.9990 C.3   293  LYS293      0.0298
     83  CG        35.7270   55.5480   23.5020 C.3   293  LYS293      0.0038
     84  CD        35.6260   54.5940   24.6660 C.3   293  LYS293      0.0206
     85  CE        36.4600   53.3570   24.4090 C.3   293  LYS293      0.1093
     86  NZ        36.6510   52.5820   25.6650 N.3   293  LYS293     -0.1314
@<TRIPOS>BOND
     1    10     9    1
     2    11     9    1
     3     9     8    2
     4     8     7    1
     5     7     6    1
     6     6     5    1
     7     5     2    1
     8     2     1    1
     9     2     3    1
    10     3     4    2
    11    83    82    1
    12    83    84    1
    13    81    80    2
    14    82    79    1
    15    80    79    1
    16    85    84    1
    17    85    86    1
    18    79    78    1
    19    21    20    1
    20    78    76   am
    21    22    20    1
    22    67    65    1
    23    20    19    2
    24    77    76    2
    25    76    75    1
    26    65    64    2
    27    65    66    1
    28    64    63    1
    29    35    33   ar
    30    19    18    1
    31    18    17    1
    32    75    74    1
    33    33    32    1
    34    33    34   ar
    35    32    31    1
    36    63    62    1
    37    37    36    1
    38    37    38    1
    39    36    29   am
    40    17    16    1
    41    74    70   am
    42    62    61    1
    43    31    28    1
    44    71    70    2
    45    28    29    1
    46    28    27    1
    47    29    30    2
    48    38    39    2
    49    38    40   am
    50    70    69    1
    51    16    13    1
    52    73    72    1
    53    43    42    2
    54    61    58    1
    55    40    41    1
    56    27    25   am
    57    72    69    1
    58    26    25    2
    59    69    68    1
    60    25    24    1
    61    13    12    1
    62    13    14    1
    63    42    41    1
    64    42    48   am
    65    57    58    1
    66    57    50   am
    67    58    59    1
    68    41    44    1
    69    49    50    1
    70    49    48    1
    71    49    52    1
    72    50    51    2
    73    53    52    1
    74    53    54    1
    75    14    15    2
    76    24    23    1
    77    60    59    2
    78    55    54    2
    79    44    45    1
    80    54    56   am
    81    45    47    1
    82    45    46    1
