@<TRIPOS>MOLECULE
tmp/1w4lA00.pdb
 253 251 0 0 0
SMALL
GASTEIGER

@<TRIPOS>ATOM
      1  N         -7.4790   63.6510   66.5480 N.3    67  TYR67      -0.1241
      2  CA        -7.0900   63.8300   67.9540 C.3    67  TYR67       0.1605
      3  C         -6.4740   65.2430   68.0480 C.2    67  TYR67       0.2264
      4  O         -5.5750   65.5860   67.2680 O.2    67  TYR67      -0.2867
      5  CB        -6.0110   62.8260   68.3390 C.3    67  TYR67       0.0534
      6  CG        -5.5980   62.9660   69.8050 C.ar   67  TYR67      -0.0201
      7  CD1       -6.3680   62.3840   70.8130 C.ar   67  TYR67      -0.0009
      8  CD2       -4.4450   63.7140   70.1680 C.ar   67  TYR67      -0.0009
      9  CE1       -6.0190   62.5250   72.1500 C.ar   67  TYR67       0.0417
     10  CE2       -4.0760   63.8800   71.5150 C.ar   67  TYR67       0.0417
     11  CZ        -4.8790   63.2720   72.5080 C.ar   67  TYR67       0.1957
     12  OH        -4.5350   63.3910   73.8370 O.3    67  TYR67      -0.2866
     13  N         -4.3020   68.0130   70.1620 N.3    69  ASP69      -0.1239
     14  CA        -3.3010   68.1270   71.2210 C.3    69  ASP69       0.1674
     15  C         -3.7440   69.1030   72.3200 C.2    69  ASP69       0.2266
     16  O         -3.9830   70.2780   72.0440 O.2    69  ASP69      -0.2867
     17  CB        -1.9860   68.6350   70.6050 C.3    69  ASP69       0.1410
     18  CG        -0.8710   68.8230   71.6170 C.2    69  ASP69       0.3668
     19  OD1       -0.9960   68.4320   72.8020 O.co2  69  ASP69      -0.2456
     20  OD2        0.1720   69.3600   71.2010 O.co2  69  ASP69      -0.2456
     21  N         -1.8950   69.0640   75.3780 N.3    71  GLN71      -0.1245
     22  CA        -0.7870   69.0200   76.3540 C.3    71  GLN71       0.1566
     23  C         -0.3790   70.4370   76.8500 C.2    71  GLN71       0.2260
     24  O         -0.0180   70.5930   77.9900 O.2    71  GLN71      -0.2867
     25  CB         0.4780   68.3630   75.7350 C.3    71  GLN71       0.0367
     26  CG         0.7120   66.9460   76.1370 C.3    71  GLN71       0.0905
     27  CD         0.7810   66.7480   77.6750 C.2    71  GLN71       0.2608
     28  OE1        1.8180   67.0080   78.3290 O.2    71  GLN71      -0.2717
     29  NE2       -0.3500   66.3150   78.2490 N.am   71  GLN71      -0.0878
     30  N          2.5680   74.4010   70.2160 N.3    78  SER78      -0.1217
     31  CA         1.7530   73.2370   69.9510 C.3    78  SER78       0.1889
     32  C          0.4350   73.5750   69.2410 C.2    78  SER78       0.2288
     33  O          0.0090   72.8240   68.3480 O.2    78  SER78      -0.2866
     34  CB         1.5150   72.4660   71.2470 C.3    78  SER78       0.2089
     35  OG         0.5150   73.0390   71.9960 O.3    78  SER78      -0.2183
     36  N         -0.1420   73.5460   65.3020 N.3    81  TRP81      -0.1227
     37  CA        -0.3660   72.2910   64.5630 C.3    81  TRP81       0.1737
     38  C         -1.8120   71.7860   64.6430 C.2    81  TRP81       0.2595
     39  O         -2.2340   70.9400   63.8360 O.2    81  TRP81      -0.2718
     40  CB         0.5620   71.1880   65.0980 C.3    81  TRP81       0.0564
     41  CG         2.0200   71.5790   65.0630 C.ar   81  TRP81       0.0003
     42  CD1        2.8210   71.8620   66.1390 C.ar   81  TRP81       0.0946
     43  CD2        2.8420   71.7380   63.8960 C.ar   81  TRP81       0.0152
     44  NE1        4.1020   72.1860   65.7100 N.ar   81  TRP81      -0.2442
     45  CE2        4.1400   72.1180   64.3420 C.ar   81  TRP81       0.0810
     46  CE3        2.6130   71.5880   62.5130 C.ar   81  TRP81       0.0012
     47  CZ2        5.2140   72.3510   63.4520 C.ar   81  TRP81       0.0191
     48  CZ3        3.6790   71.8220   61.6270 C.ar   81  TRP81       0.0001
     49  CH2        4.9730   72.2030   62.1160 C.ar   81  TRP81       0.0015
     50  N         -2.5620   72.3220   65.5990 N.am   82  ASN82      -0.1974
     51  CA        -3.9360   71.9000   65.8410 C.3    82  ASN82       0.1688
     52  C         -4.8820   72.4310   64.8020 C.2    82  ASN82       0.2292
     53  O         -4.6130   73.4330   64.1750 O.2    82  ASN82      -0.2864
     54  CB        -4.4210   72.3580   67.2380 C.3    82  ASN82       0.1181
     55  CG        -4.0920   71.3260   68.3560 C.2    82  ASN82       0.2629
     56  OD1       -3.9730   70.0950   68.0990 O.2    82  ASN82      -0.2716
     57  ND2       -3.9630   71.8250   69.5990 N.am   82  ASN82      -0.0877
     58  N          1.7510   66.8260   57.0410 N.3   114  GLY114     -0.1210
     59  CA         2.0990   65.7050   57.9170 C.3   114  GLY114      0.1956
     60  C          1.1460   65.7190   59.1340 C.2   114  GLY114      0.2612
     61  O          0.1280   66.4470   59.1520 O.2   114  GLY114     -0.2717
     62  N          1.5160   64.9570   60.1630 N.am  115  GLY115     -0.1942
     63  CA         0.7270   64.8180   61.3700 C.3   115  GLY115      0.2014
     64  C          0.6880   63.3370   61.8160 C.2   115  GLY115      0.2639
     65  O         -0.2640   62.9150   62.4330 O.2   115  GLY115     -0.2714
     66  N          1.7390   62.5570   61.5260 N.am  116  GLY116     -0.1954
     67  CA         1.7920   61.1530   61.9630 C.3   116  GLY116      0.1869
     68  C          0.6740   60.2580   61.4430 C.2   116  GLY116      0.2309
     69  O          0.4370   59.1680   61.9670 O.2   116  GLY116     -0.2863
     70  N         -2.2860   60.7230   61.8150 N.3   118  TYR118     -0.1227
     71  CA        -3.4860   60.7580   62.6890 C.3   118  TYR118      0.1736
     72  C         -4.0130   62.1890   62.8750 C.2   118  TYR118      0.2596
     73  O         -5.0240   62.3980   63.5420 O.2   118  TYR118     -0.2718
     74  CB        -3.1660   60.1720   64.0860 C.3   118  TYR118      0.0548
     75  CG        -2.2510   61.0340   64.9720 C.ar  118  TYR118     -0.0200
     76  CD1       -2.7560   62.0890   65.7410 C.ar  118  TYR118     -0.0009
     77  CD2       -0.8940   60.7490   65.0670 C.ar  118  TYR118     -0.0009
     78  CE1       -1.8920   62.8480   66.6240 C.ar  118  TYR118      0.0417
     79  CE2       -0.0420   61.4610   65.9170 C.ar  118  TYR118      0.0417
     80  CZ        -0.5490   62.5170   66.7050 C.ar  118  TYR118      0.1957
     81  OH         0.3270   63.1790   67.5740 O.3   118  TYR118     -0.2866
     82  N         -3.3080   63.1750   62.3030 N.am  119  SER119     -0.1952
     83  CA        -3.7420   64.5530   62.4630 C.3   119  SER119      0.1924
     84  C         -3.2100   65.3200   61.2950 C.2   119  SER119      0.2314
     85  O         -2.5450   64.7490   60.4340 O.2   119  SER119     -0.2863
     86  CB        -3.2090   65.1500   63.7840 C.3   119  SER119      0.2116
     87  OG        -1.7760   65.0630   63.8430 O.3   119  SER119     -0.2180
     88  N         -3.4450   75.4080   58.2500 N.3   124  LEU124     -0.1245
     89  CA        -2.6110   75.9740   59.2830 C.3   124  LEU124      0.1561
     90  C         -1.9120   77.2470   58.7930 C.2   124  LEU124      0.2260
     91  O         -1.5160   77.3370   57.6260 O.2   124  LEU124     -0.2867
     92  CB        -1.5380   74.9370   59.6890 C.3   124  LEU124      0.0270
     93  CG        -2.0670   73.5440   60.1370 C.3   124  LEU124      0.0019
     94  CD1       -0.8770   72.6980   60.6720 C.3   124  LEU124      0.0001
     95  CD2       -3.1270   73.7030   61.2520 C.3   124  LEU124      0.0001
     96  N          1.2080   76.7110   56.8610 N.3   127  TYR127     -0.1241
     97  CA         1.1140   76.1970   55.4680 C.3   127  TYR127      0.1605
     98  C          0.4730   77.2360   54.5180 C.2   127  TYR127      0.2264
     99  O          0.0600   76.8840   53.3900 O.2   127  TYR127     -0.2867
    100  CB         0.2720   74.9030   55.3880 C.3   127  TYR127      0.0534
    101  CG         0.7400   73.7480   56.3070 C.ar  127  TYR127     -0.0201
    102  CD1        2.0860   73.6060   56.6690 C.ar  127  TYR127     -0.0009
    103  CD2       -0.1860   72.7900   56.7750 C.ar  127  TYR127     -0.0009
    104  CE1        2.5150   72.5040   57.5060 C.ar  127  TYR127      0.0417
    105  CE2        0.2130   71.7150   57.5730 C.ar  127  TYR127      0.0417
    106  CZ         1.5640   71.5840   57.9360 C.ar  127  TYR127      0.1957
    107  OH         1.9300   70.5300   58.7260 O.3   127  TYR127     -0.2866
    108  N          6.0320   67.1420   54.4370 N.3   196  GLU196     -0.1231
    109  CA         6.9040   66.9580   55.5570 C.3   196  GLU196      0.1699
    110  C          6.4210   65.8540   56.5200 C.2   196  GLU196      0.2592
    111  O          5.2340   65.7360   56.8040 O.2   196  GLU196     -0.2718
    112  CB         7.0840   68.3220   56.3050 C.3   196  GLU196      0.0402
    113  CG         8.1100   68.2760   57.4540 C.3   196  GLU196      0.1161
    114  CD         7.4830   67.8800   58.8130 C.2   196  GLU196      0.3649
    115  OE1        6.2380   67.8320   58.8970 O.co2 196  GLU196     -0.2457
    116  OE2        8.2350   67.6150   59.8150 O.co2 196  GLU196     -0.2457
    117  N          7.3870   65.0690   57.0010 N.am  197  SER197     -0.1952
    118  CA         7.1500   63.9760   57.9510 C.3   197  SER197      0.1924
    119  C          6.1110   62.9880   57.3340 C.2   197  SER197      0.2314
    120  O          6.4110   62.3760   56.3250 O.2   197  SER197     -0.2863
    121  CB         6.7220   64.5700   59.3070 C.3   197  SER197      0.2116
    122  OG         6.6200   63.5590   60.3170 O.3   197  SER197     -0.2180
    123  N          7.5050   53.8980   61.5320 N.3   230  TRP230     -0.1241
    124  CA         6.1860   54.2930   62.0180 C.3   230  TRP230      0.1605
    125  C          5.1700   54.5380   60.8830 C.2   230  TRP230      0.2264
    126  O          3.9950   54.6850   61.1440 O.2   230  TRP230     -0.2867
    127  CB         6.2630   55.6190   62.8200 C.3   230  TRP230      0.0550
    128  CG         7.0410   56.6880   62.0620 C.ar  230  TRP230      0.0003
    129  CD1        8.3980   56.9090   62.1240 C.ar  230  TRP230      0.0946
    130  CD2        6.5170   57.6660   61.1420 C.ar  230  TRP230      0.0152
    131  NE1        8.7470   57.9640   61.3030 N.ar  230  TRP230     -0.2442
    132  CE2        7.6200   58.4500   60.6910 C.ar  230  TRP230      0.0810
    133  CE3        5.2300   57.9630   60.6570 C.ar  230  TRP230      0.0012
    134  CZ2        7.4700   59.5130   59.7790 C.ar  230  TRP230      0.0191
    135  CZ3        5.0750   59.0240   59.7470 C.ar  230  TRP230      0.0001
    136  CH2        6.1950   59.7890   59.3170 C.ar  230  TRP230      0.0015
    137  N         -5.7020   55.6820   70.5630 N.3   276  TRP276     -0.1241
    138  CA        -4.3720   55.4230   71.0690 C.3   276  TRP276      0.1605
    139  C         -4.3110   54.1090   71.8170 C.2   276  TRP276      0.2264
    140  O         -3.2420   53.5690   71.9730 O.2   276  TRP276     -0.2867
    141  CB        -3.8980   56.5800   71.9810 C.3   276  TRP276      0.0550
    142  CG        -3.6760   57.8620   71.2720 C.ar  276  TRP276      0.0003
    143  CD1       -4.5210   58.9590   71.2290 C.ar  276  TRP276      0.0946
    144  CD2       -2.5290   58.2140   70.4990 C.ar  276  TRP276      0.0152
    145  NE1       -3.9500   59.9660   70.4700 N.ar  276  TRP276     -0.2442
    146  CE2       -2.7350   59.5310   70.0080 C.ar  276  TRP276      0.0810
    147  CE3       -1.3480   57.5480   70.1690 C.ar  276  TRP276      0.0012
    148  CZ2       -1.8020   60.1800   69.1980 C.ar  276  TRP276      0.0191
    149  CZ3       -0.4030   58.2050   69.3510 C.ar  276  TRP276      0.0001
    150  CH2       -0.6380   59.4950   68.8780 C.ar  276  TRP276      0.0015
    151  N         -2.3160   50.5300   70.1420 N.3   279  LEU279     -0.1245
    152  CA        -0.8830   50.3340   69.8830 C.3   279  LEU279      0.1561
    153  C         -0.4830   49.0360   70.5110 C.2   279  LEU279      0.2260
    154  O         -0.9510   48.6880   71.6010 O.2   279  LEU279     -0.2867
    155  CB        -0.0230   51.4660   70.4960 C.3   279  LEU279      0.0270
    156  CG        -0.1740   52.7840   69.6680 C.3   279  LEU279      0.0019
    157  CD1        0.6970   53.8740   70.2980 C.3   279  LEU279      0.0001
    158  CD2        0.2810   52.5740   68.2190 C.3   279  LEU279      0.0001
    159  N          5.2050   52.6790   73.7090 N.3   283  SER283     -0.1202
    160  CA         6.1950   53.2090   72.8100 C.3   283  SER283      0.2020
    161  C          6.0760   54.6950   72.6340 C.2   283  SER283      0.2619
    162  O          5.1350   55.3390   73.1290 O.2   283  SER283     -0.2717
    163  CB         5.9850   52.5770   71.4310 C.3   283  SER283      0.2103
    164  OG         4.6760   52.9590   70.9560 O.3   283  SER283     -0.2182
    165  N          7.0170   55.1910   71.8410 N.am  284  ILE284     -0.1965
    166  CA         7.0790   56.5710   71.4220 C.3   284  ILE284      0.1727
    167  C          7.2870   56.5600   69.9140 C.2   284  ILE284      0.2616
    168  O          7.8980   55.6420   69.3780 O.2   284  ILE284     -0.2715
    169  CB         8.2140   57.2500   72.2410 C.3   284  ILE284      0.0290
    170  CG1        7.5760   58.3270   73.0240 C.3   284  ILE284      0.0022
    171  CG2        9.4570   57.5140   71.5290 C.3   284  ILE284      0.0023
    172  CD1        7.3790   57.7710   74.2710 C.3   284  ILE284      0.0001
    173  N          6.7640   57.5710   69.2140 N.am  285  PHE285     -0.1960
    174  CA         6.9260   57.6480   67.7700 C.3   285  PHE285      0.1771
    175  C          6.2370   56.4740   67.0220 C.2   285  PHE285      0.2619
    176  O          6.7620   55.9560   66.0260 O.2   285  PHE285     -0.2715
    177  CB         8.4170   57.7210   67.3560 C.3   285  PHE285      0.0574
    178  CG         8.6920   58.7400   66.2450 C.ar  285  PHE285     -0.0200
    179  CD1        7.9940   58.6610   65.0190 C.ar  285  PHE285     -0.0042
    180  CD2        9.6180   59.7700   66.4270 C.ar  285  PHE285     -0.0042
    181  CE1        8.2070   59.5630   64.0060 C.ar  285  PHE285     -0.0003
    182  CE2        9.8580   60.7030   65.4120 C.ar  285  PHE285     -0.0003
    183  CZ         9.1550   60.6170   64.1810 C.ar  285  PHE285     -0.0000
    184  N          5.0680   56.0680   67.5150 N.am  286  ARG286     -0.1963
    185  CA         4.2630   54.9990   66.8550 C.3   286  ARG286      0.1729
    186  C          2.8040   55.5070   66.8880 C.2   286  ARG286      0.2616
    187  O          2.3370   56.0140   67.9110 O.2   286  ARG286     -0.2715
    188  CB         4.3940   53.6730   67.5920 C.3   286  ARG286      0.0348
    189  CG         5.7480   53.0300   67.4750 C.3   286  ARG286      0.0492
    190  CD         6.1480   52.7470   66.0170 C.3   286  ARG286      0.2205
    191  NE         7.4210   52.0270   65.9760 N.pl3 286  ARG286     -0.0865
    192  CZ         8.6190   52.5800   65.7990 C.cat 286  ARG286      0.5346
    193  NH1        8.7700   53.8920   65.6300 N.pl3 286  ARG286      0.1354
    194  NH2        9.6890   51.7990   65.7820 N.pl3 286  ARG286      0.1354
    195  N          2.1070   55.3910   65.7640 N.am  287  PHE287     -0.1974
    196  CA         0.7500   55.9100   65.6320 C.3   287  PHE287      0.1639
    197  C         -0.1730   54.7520   65.1990 C.2   287  PHE287      0.2290
    198  O          0.2470   53.8250   64.5460 O.2   287  PHE287     -0.2864
    199  CB         0.7890   57.0830   64.6280 C.3   287  PHE287      0.0560
    200  CG         1.9630   58.0160   64.8720 C.ar  287  PHE287     -0.0200
    201  CD1        2.0740   58.7220   66.0900 C.ar  287  PHE287     -0.0042
    202  CD2        3.0160   58.0700   63.9790 C.ar  287  PHE287     -0.0042
    203  CE1        3.2430   59.4770   66.4210 C.ar  287  PHE287     -0.0003
    204  CE2        4.2140   58.8210   64.2910 C.ar  287  PHE287     -0.0003
    205  CZ         4.3130   59.5170   65.5110 C.ar  287  PHE287     -0.0000
    206  N         10.7080   66.4360   69.8560 N.3   327  PHE327     -0.1227
    207  CA         9.2650   66.5880   70.0220 C.3   327  PHE327      0.1736
    208  C          8.6620   65.3390   70.6910 C.2   327  PHE327      0.2595
    209  O          7.7680   65.4220   71.5550 O.2   327  PHE327     -0.2718
    210  CB         8.5970   66.7270   68.6430 C.3   327  PHE327      0.0547
    211  CG         7.5340   67.7870   68.5580 C.ar  327  PHE327     -0.0202
    212  CD1        6.6470   68.0140   69.6070 C.ar  327  PHE327     -0.0042
    213  CD2        7.4100   68.5610   67.3890 C.ar  327  PHE327     -0.0042
    214  CE1        5.6560   69.0080   69.4950 C.ar  327  PHE327     -0.0003
    215  CE2        6.4420   69.5270   67.2840 C.ar  327  PHE327     -0.0003
    216  CZ         5.5600   69.7560   68.3390 C.ar  327  PHE327     -0.0000
    217  N          9.1460   64.1710   70.2740 N.am  328  PHE328     -0.1976
    218  CA         8.5700   62.9250   70.7690 C.3   328  PHE328      0.1639
    219  C          9.0220   62.5140   72.1580 C.2   328  PHE328      0.2290
    220  O          8.2770   61.8400   72.9120 O.2   328  PHE328     -0.2864
    221  CB         8.8300   61.8390   69.7190 C.3   328  PHE328      0.0560
    222  CG         8.3830   62.2680   68.3330 C.ar  328  PHE328     -0.0200
    223  CD1        9.2280   63.0410   67.5320 C.ar  328  PHE328     -0.0042
    224  CD2        7.0530   62.0480   67.9200 C.ar  328  PHE328     -0.0042
    225  CE1        8.7550   63.6020   66.3330 C.ar  328  PHE328     -0.0003
    226  CE2        6.5650   62.5980   66.7470 C.ar  328  PHE328     -0.0003
    227  CZ         7.4100   63.3800   65.9400 C.ar  328  PHE328     -0.0000
    228  N          7.0020   64.6930   74.6060 N.3   331  TYR331     -0.1241
    229  CA         5.6550   64.2180   74.8620 C.3   331  TYR331      0.1605
    230  C          5.5690   62.8870   75.5630 C.2   331  TYR331      0.2264
    231  O          4.6110   62.6510   76.2380 O.2   331  TYR331     -0.2867
    232  CB         4.7870   64.2240   73.6010 C.3   331  TYR331      0.0534
    233  CG         4.2010   65.5780   73.2980 C.ar  331  TYR331     -0.0201
    234  CD1        5.0410   66.7110   73.1080 C.ar  331  TYR331     -0.0009
    235  CD2        2.8100   65.7440   73.1750 C.ar  331  TYR331     -0.0009
    236  CE1        4.4960   67.9800   72.7910 C.ar  331  TYR331      0.0417
    237  CE2        2.2630   66.9970   72.8660 C.ar  331  TYR331      0.0417
    238  CZ         3.1060   68.1180   72.6630 C.ar  331  TYR331      0.1957
    239  OH         2.5610   69.3490   72.2700 O.3   331  TYR331     -0.2866
    240  N         11.5690   68.7220   64.7720 N.3   437  HIS437     -0.1226
    241  CA        10.8420   68.0800   63.6990 C.3   437  HIS437      0.1752
    242  C          9.7520   69.0670   63.2780 C.2   437  HIS437      0.2596
    243  O          8.9400   69.4990   64.0920 O.2   437  HIS437     -0.2718
    244  CB        10.1660   66.8050   64.2220 C.3   437  HIS437      0.0759
    245  CG         9.6380   65.9040   63.1490 C.ar  437  HIS437      0.0818
    246  ND1       10.4420   65.3780   62.1470 N.ar  437  HIS437     -0.2268
    247  CD2        8.4090   65.3410   62.9890 C.ar  437  HIS437      0.1154
    248  CE1        9.7340   64.5140   61.4330 C.ar  437  HIS437      0.1986
    249  NE2        8.4970   64.4740   61.9220 N.ar  437  HIS437     -0.2212
    250  N          9.7360   69.4360   62.0150 N.am  438  GLY438     -0.1957
    251  CA         8.7000   70.3380   61.5440 C.3   438  GLY438      0.1869
    252  C          9.0560   71.8280   61.4810 C.2   438  GLY438      0.2309
    253  O          8.3590   72.6050   60.8270 O.2   438  GLY438     -0.2863
@<TRIPOS>BOND
     1    99    98    2
     2   108   109    1
     3    98    97    1
     4   100    97    1
     5   100   101    1
     6    97    96    1
     7   109   112    1
     8   109   110    1
     9   112   113    1
    10   101   102   ar
    11   101   103   ar
    12   120   119    2
    13   110   111    2
    14   110   117   am
    15   102   104   ar
    16   103   105   ar
    17   117   118    1
    18    58    59    1
    19   119   118    1
    20   113   114    1
    21   104   106   ar
    22   105   106   ar
    23    91    90    2
    24    59    60    1
    25   106   107    1
    26   118   121    1
    27    88    89    1
    28    90    89    1
    29   114   115   ar
    30   114   116   ar
    31    60    61    2
    32    60    62   am
    33    89    92    1
    34   121   122    1
    35   136   135   ar
    36   136   134   ar
    37    92    93    1
    38   135   133   ar
    39   134   132   ar
    40    93    94    1
    41    93    95    1
    42    62    63    1
    43    85    84    2
    44   133   130   ar
    45   132   130   ar
    46   132   131   ar
    47   253   252    2
    48   125   126    2
    49   125   124    1
    50   130   128   ar
    51    84    83    1
    52   131   129   ar
    53    63    64    1
    54   248   249   ar
    55   248   246   ar
    56    68    67    1
    57    68    69    2
    58   252   251    1
    59    66    64   am
    60    66    67    1
    61   123   124    1
    62   251   250    1
    63    48    49   ar
    64    48    46   ar
    65    70    71    1
    66    64    65    2
    67   249   247   ar
    68   250   242   am
    69   124   127    1
    70   128   129   ar
    71   128   127    1
    72    49    47   ar
    73   246   245   ar
    74    82    83    1
    75    82    72   am
    76    83    86    1
    77    46    43   ar
    78    71    72    1
    79    71    74    1
    80    72    73    2
    81   247   245   ar
    82   245   244    1
    83   242   241    1
    84   242   243    2
    85    47    45   ar
    86   241   244    1
    87   241   240    1
    88    86    87    1
    89    39    38    2
    90    43    45   ar
    91    43    41   ar
    92   202   204   ar
    93   202   200   ar
    94   181   183   ar
    95   181   179   ar
    96    74    75    1
    97    53    52    2
    98   183   182   ar
    99   204   205   ar
   100    45    44   ar
   101   198   197    2
   102    37    38    1
   103    37    40    1
   104    37    36    1
   105   199   200    1
   106   199   196    1
   107    38    50   am
   108    52    51    1
   109   200   201   ar
   110    75    77   ar
   111    75    76   ar
   112   179   178   ar
   113    41    40    1
   114    41    42   ar
   115    77    79   ar
   116   197   196    1
   117   182   180   ar
   118   205   203   ar
   119    50    51    1
   120   193   192    1
   121   196   195    1
   122    44    42   ar
   123    76    78   ar
   124   195   186   am
   125   194   192    1
   126   192   191    2
   127    51    54    1
   128    79    80   ar
   129   227   225   ar
   130   227   226   ar
   131   191   190    1
   132   190   189    1
   133   176   175    2
   134   201   203   ar
   135   178   180   ar
   136   178   177    1
   137   225   223   ar
   138     1     2    1
   139    78    80   ar
   140    80    81    1
   141   226   224   ar
   142   185   186    1
   143   185   184    1
   144   185   188    1
   145   186   187    2
   146   175   184   am
   147   175   174    1
   148    54    55    1
   149     4     3    2
   150   215   213   ar
   151   215   216   ar
   152   177   174    1
   153   213   211   ar
   154   189   188    1
   155   223   222   ar
   156   174   173    1
   157   224   222   ar
   158     2     3    1
   159     2     5    1
   160    56    55    2
   161   158   156    1
   162   222   221    1
   163   216   214   ar
   164     5     6    1
   165    33    32    2
   166    55    57   am
   167   211   210    1
   168   211   212   ar
   169   210   207    1
   170   150   148   ar
   171   150   149   ar
   172   148   146   ar
   173   173   167   am
   174    32    31    1
   175   149   147   ar
   176   168   167    2
   177   214   212   ar
   178   156   157    1
   179   156   155    1
   180   221   218    1
   181     6     8   ar
   182     6     7   ar
   183   206   207    1
   184   152   151    1
   185   152   155    1
   186   152   153    1
   187   167   166    1
   188    31    30    1
   189    31    34    1
   190   146   145   ar
   191   146   144   ar
   192   207   208    1
   193    13    14    1
   194     8    10   ar
   195   147   144   ar
   196   217   208   am
   197   217   218    1
   198   145   143   ar
   199   144   142   ar
   200   153   154    2
   201   137   138    1
   202    17    14    1
   203    17    18    1
   204   208   209    2
   205   218   219    1
   206     7     9   ar
   207   164   163    1
   208   138   139    1
   209   138   141    1
   210    20    18   ar
   211    14    15    1
   212   143   142   ar
   213    34    35    1
   214   142   141    1
   215   166   165    1
   216   166   169    1
   217   163   160    1
   218    10    11   ar
   219   171   169    1
   220    18    19   ar
   221   139   140    2
   222   165   161   am
   223    16    15    2
   224     9    11   ar
   225   219   220    2
   226   169   170    1
   227   239   238    1
   228    11    12    1
   229   161   160    1
   230   161   162    2
   231   238   236   ar
   232   238   237   ar
   233   236   234   ar
   234   160   159    1
   235   237   235   ar
   236   170   172    1
   237   234   233   ar
   238   235   233   ar
   239   233   232    1
   240   232   229    1
   241   228   229    1
   242   229   230    1
   243    21    22    1
   244   230   231    2
   245    25    26    1
   246    25    22    1
   247    26    27    1
   248    22    23    1
   249    23    24    2
   250    27    29   am
   251    27    28    2
