@<TRIPOS>MOLECULE
tmp/1w4rA00.pdb
 218 210 0 0 0
SMALL
GASTEIGER

@<TRIPOS>ATOM
      1  N         51.3210   79.0380    4.7250 N.3    11  MET11      -0.1230
      2  CA        51.5270   77.7990    5.4250 C.3    11  MET11       0.1702
      3  C         50.4760   77.6590    6.5170 C.2    11  MET11       0.2592
      4  O         49.8790   78.6360    6.9510 O.2    11  MET11      -0.2718
      5  CB        52.9240   77.7180    6.0310 C.3    11  MET11       0.0401
      6  CG        53.9590   77.5970    4.9880 C.3    11  MET11       0.0596
      7  SD        55.6670   77.4200    5.6870 S.3    11  MET11      -0.1393
      8  CE        55.5050   75.7800    6.2810 C.3    11  MET11       0.0692
      9  N         50.2270   76.4160    6.8840 N.am   12  PHE12      -0.1962
     10  CA        49.3990   76.0350    7.9980 C.3    12  PHE12       0.1771
     11  C         47.9450   76.3190    7.7410 C.2    12  PHE12       0.2620
     12  O         47.1460   76.3660    8.6730 O.2    12  PHE12      -0.2715
     13  CB        49.8410   76.6880    9.2950 C.3    12  PHE12       0.0574
     14  CG        51.3150   76.6520    9.4780 C.ar   12  PHE12      -0.0200
     15  CD1       51.9630   75.4370    9.5830 C.ar   12  PHE12      -0.0042
     16  CD2       52.0440   77.8210    9.5150 C.ar   12  PHE12      -0.0042
     17  CE1       53.3310   75.3930    9.7430 C.ar   12  PHE12      -0.0003
     18  CE2       53.4140   77.7830    9.6800 C.ar   12  PHE12      -0.0003
     19  CZ        54.0420   76.5520    9.8030 C.ar   12  PHE12      -0.0000
     20  N         47.5960   76.4970    6.4680 N.am   13  SER13      -0.1936
     21  CA        46.2060   76.7720    6.1260 C.3    13  SER13       0.2055
     22  C         45.4460   75.4930    5.7160 C.2    13  SER13       0.2644
     23  O         44.2500   75.5440    5.3920 O.2    13  SER13      -0.2714
     24  CB        46.1400   77.8330    5.0130 C.3    13  SER13       0.2130
     25  OG        46.8580   77.4420    3.8650 O.3    13  SER13      -0.2179
     26  N         46.1430   74.3560    5.6560 N.am   14  GLY14      -0.1939
     27  CA        45.5330   73.0980    5.2750 C.3    14  GLY14       0.2014
     28  C         45.3180   72.8880    3.7770 C.2    14  GLY14       0.2639
     29  O         44.4180   72.1710    3.3410 O.2    14  GLY14      -0.2714
     30  N         46.1680   73.5070    2.9740 N.am   15  LYS15      -0.1963
     31  CA        46.1080   73.3560    1.5090 C.3    15  LYS15       0.1728
     32  C         46.2250   71.8910    1.0920 C.2    15  LYS15       0.2616
     33  O         45.4720   71.4430    0.2310 O.2    15  LYS15      -0.2715
     34  CB        47.2430   74.1660    0.8480 C.3    15  LYS15       0.0311
     35  CG        47.2290   75.6380    1.1670 C.3    15  LYS15       0.0038
     36  CD        48.2930   76.3810    0.3920 C.3    15  LYS15       0.0206
     37  CE        49.7230   75.8650    0.7200 C.3    15  LYS15       0.1093
     38  NZ        49.9990   75.9510    2.2210 N.3    15  LYS15      -0.1314
     39  N         47.1580   71.1330    1.6660 N.am   16  SER16      -0.1950
     40  CA        47.2880   69.7260    1.2330 C.3    16  SER16       0.1924
     41  C         46.0930   68.8820    1.6990 C.2    16  SER16       0.2314
     42  O         45.7410   67.9370    1.0430 O.2    16  SER16      -0.2863
     43  CB        48.6090   69.0930    1.6780 C.3    16  SER16       0.2116
     44  OG        48.6180   68.9620    3.0730 O.3    16  SER16      -0.2180
     45  N         60.8400   68.0560    0.1310 N.3    41  ASP41      -0.1239
     46  CA        60.1580   68.3140    1.3890 C.3    41  ASP41       0.1674
     47  C         59.9180   66.9940    2.1010 C.2    41  ASP41       0.2266
     48  O         58.8920   66.2900    1.9260 O.2    41  ASP41      -0.2867
     49  CB        58.8960   69.1600    1.2040 C.3    41  ASP41       0.1410
     50  CG        58.4150   69.7630    2.5090 C.2    41  ASP41       0.3668
     51  OD1       58.7350   69.1840    3.5920 O.co2  41  ASP41      -0.2456
     52  OD2       57.7170   70.8010    2.5810 O.co2  41  ASP41      -0.2456
     53  N         59.5800   66.4200    5.3730 N.3    43  ARG43      -0.1245
     54  CA        58.9910   66.5180    6.7150 C.3    43  ARG43       0.1563
     55  C         57.9630   65.4310    6.9490 C.2    43  ARG43       0.2260
     56  O         57.2200   65.0780    6.0160 O.2    43  ARG43      -0.2867
     57  CB        58.3230   67.8610    6.9050 C.3    43  ARG43       0.0307
     58  CG        59.2620   69.0020    6.9120 C.3    43  ARG43       0.0489
     59  CD        58.5470   70.3190    7.0320 C.3    43  ARG43       0.2205
     60  NE        57.6930   70.5420    5.8850 N.pl3  43  ARG43      -0.0865
     61  CZ        56.5120   71.1080    5.9100 C.cat  43  ARG43       0.5346
     62  NH1       55.9760   71.5400    7.0500 N.pl3  43  ARG43       0.1354
     63  NH2       55.8510   71.2650    4.7690 N.pl3  43  ARG43       0.1354
     64  N         55.2520   65.6850    8.5640 N.3    45  SER45      -0.1202
     65  CA        53.8830   66.2210    8.4480 C.3    45  SER45       0.2020
     66  C         53.4120   66.2980    6.9920 C.2    45  SER45       0.2619
     67  O         52.2150   66.4210    6.7410 O.2    45  SER45      -0.2717
     68  CB        53.7540   67.6010    9.1050 C.3    45  SER45       0.2103
     69  OG        54.6650   68.5450    8.5500 O.3    45  SER45      -0.2182
     70  N         54.3590   66.2140    6.0510 N.am   46  SER46      -0.1951
     71  CA        54.1090   66.3150    4.6060 C.3    46  SER46       0.1924
     72  C         54.0480   64.9760    3.8510 C.2    46  SER46       0.2314
     73  O         53.8060   64.9570    2.6370 O.2    46  SER46      -0.2863
     74  CB        55.2280   67.1430    3.9670 C.3    46  SER46       0.2116
     75  OG        54.9560   68.5080    4.1230 O.3    46  SER46      -0.2180
     76  N         50.9960   68.6120   -4.7010 N.3    80  ASP80      -0.1225
     77  CA        51.2680   69.3090   -3.4590 C.3    80  ASP80       0.1805
     78  C         52.5510   70.0980   -3.5850 C.2    80  ASP80       0.2597
     79  O         53.4940   69.6270   -4.1920 O.2    80  ASP80      -0.2718
     80  CB        51.3840   68.2820   -2.3490 C.3    80  ASP80       0.1424
     81  CG        51.4110   68.9180   -0.9900 C.2    80  ASP80       0.3668
     82  OD1       50.6360   69.8790   -0.7920 O.co2  80  ASP80      -0.2456
     83  OD2       52.2220   68.5590   -0.0990 O.co2  80  ASP80      -0.2456
     84  N         52.5550   71.2890   -3.0150 N.am   81  GLU81      -0.1979
     85  CA        53.6690   72.2300   -3.0340 C.3    81  GLU81       0.1602
     86  C         54.0490   72.6040   -4.4370 C.2    81  GLU81       0.2287
     87  O         55.2210   72.5750   -4.8060 O.2    81  GLU81      -0.2864
     88  CB        54.8910   71.7050   -2.2070 C.3    81  GLU81       0.0415
     89  CG        54.5170   71.4200   -0.7680 C.3    81  GLU81       0.1163
     90  CD        55.7220   71.1620    0.1840 C.2    81  GLU81       0.3649
     91  OE1       56.8490   71.5000   -0.1690 O.co2  81  GLU81      -0.2457
     92  OE2       55.5010   70.6150    1.2790 O.co2  81  GLU81      -0.2457
     93  N         54.4940   75.2530   -5.9830 N.3    83  GLN83      -0.1231
     94  CA        55.4670   76.3340   -6.1230 C.3    83  GLN83       0.1698
     95  C         56.9000   75.8400   -6.3890 C.2    83  GLN83       0.2592
     96  O         57.7310   76.5860   -6.9590 O.2    83  GLN83      -0.2718
     97  CB        55.4780   77.2870   -4.9170 C.3    83  GLN83       0.0381
     98  CG        56.0180   76.7030   -3.5570 C.3    83  GLN83       0.0905
     99  CD        54.9550   75.9080   -2.7680 C.2    83  GLN83       0.2608
    100  OE1       53.8370   75.6820   -3.2620 O.2    83  GLN83      -0.2717
    101  NE2       55.2880   75.4940   -1.5580 N.am   83  GLN83      -0.0878
    102  N         57.1960   74.6250   -5.9620 N.am   84  PHE84      -0.1976
    103  CA        58.5680   74.1110   -6.0670 C.3    84  PHE84       0.1639
    104  C         58.8590   73.4330   -7.3920 C.2    84  PHE84       0.2290
    105  O         60.0000   73.0430   -7.6500 O.2    84  PHE84      -0.2864
    106  CB        58.8490   73.1390   -4.9360 C.3    84  PHE84       0.0560
    107  CG        59.0760   73.8210   -3.6300 C.ar   84  PHE84      -0.0200
    108  CD1       59.9900   74.8770   -3.5180 C.ar   84  PHE84      -0.0042
    109  CD2       58.3680   73.4310   -2.5130 C.ar   84  PHE84      -0.0042
    110  CE1       60.2000   75.5300   -2.3030 C.ar   84  PHE84      -0.0003
    111  CE2       58.5690   74.1090   -1.3050 C.ar   84  PHE84      -0.0003
    112  CZ        59.5010   75.1420   -1.2120 C.ar   84  PHE84      -0.0000
    113  N         51.7470   77.4420   -2.0280 N.3   107  LEU107     -0.1245
    114  CA        51.9010   78.7370   -1.4500 C.3   107  LEU107      0.1561
    115  C         51.8440   79.7680   -2.5460 C.2   107  LEU107      0.2260
    116  O         52.4760   79.6050   -3.5620 O.2   107  LEU107     -0.2867
    117  CB        53.2730   78.8410   -0.7900 C.3   107  LEU107      0.0270
    118  CG        53.4830   78.0220    0.4860 C.3   107  LEU107      0.0019
    119  CD1       54.9310   78.1710    0.9170 C.3   107  LEU107      0.0001
    120  CD2       52.5190   78.5210    1.5690 C.3   107  LEU107      0.0001
    121  N         52.7560   82.9530   -1.8700 N.3   109  GLY109     -0.1210
    122  CA        53.8410   83.8430   -1.5710 C.3   109  GLY109      0.1956
    123  C         54.9470   83.2300   -0.7540 C.2   109  GLY109      0.2613
    124  O         54.7210   82.3220    0.0360 O.2   109  GLY109     -0.2717
    125  N         56.1260   83.7480   -0.9830 N.am  110  THR110     -0.1938
    126  CA        57.3130   83.4130   -0.1750 C.3   110  THR110      0.2028
    127  C         57.2170   84.1080    1.1510 C.2   110  THR110      0.2642
    128  O         56.3240   84.9210    1.4010 O.2   110  THR110     -0.2714
    129  CB        58.5890   83.8720   -0.8690 C.3   110  THR110      0.1808
    130  OG1       58.6110   85.3040   -0.9220 O.3   110  THR110     -0.2208
    131  CG2       58.6930   83.3910   -2.2910 C.3   110  THR110      0.0379
    132  N         58.2100   83.8550    2.0070 N.am  111  PHE111     -0.1973
    133  CA        58.3680   84.5830    3.2590 C.3   111  PHE111      0.1639
    134  C         58.5070   86.0980    3.0930 C.2   111  PHE111      0.2290
    135  O         58.3200   86.8490    4.0510 O.2   111  PHE111     -0.2864
    136  CB        59.5800   84.0250    4.0160 C.3   111  PHE111      0.0560
    137  CG        60.8840   84.4680    3.4590 C.ar  111  PHE111     -0.0200
    138  CD1       61.4260   83.8690    2.3390 C.ar  111  PHE111     -0.0042
    139  CD2       61.6060   85.4860    4.1010 C.ar  111  PHE111     -0.0042
    140  CE1       62.6330   84.2810    1.8130 C.ar  111  PHE111     -0.0003
    141  CE2       62.8450   85.8830    3.5800 C.ar  111  PHE111     -0.0003
    142  CZ        63.3400   85.2960    2.4390 C.ar  111  PHE111     -0.0000
    143  N         55.6730   83.0810   -5.3720 N.3   116  PHE116     -0.1241
    144  CA        56.5130   81.9130   -5.1680 C.3   116  PHE116      0.1605
    145  C         56.7050   81.1520   -6.4700 C.2   116  PHE116      0.2264
    146  O         55.8330   80.4130   -6.9140 O.2   116  PHE116     -0.2867
    147  CB        55.9130   81.0100   -4.0910 C.3   116  PHE116      0.0534
    148  CG        56.9350   80.2150   -3.3000 C.ar  116  PHE116     -0.0203
    149  CD1       58.0330   79.6210   -3.9160 C.ar  116  PHE116     -0.0042
    150  CD2       56.7680   80.0380   -1.9590 C.ar  116  PHE116     -0.0042
    151  CE1       58.9530   78.8790   -3.1600 C.ar  116  PHE116     -0.0003
    152  CE2       57.6850   79.3080   -1.2240 C.ar  116  PHE116     -0.0003
    153  CZ        58.7610   78.7320   -1.8550 C.ar  116  PHE116     -0.0000
    154  N         53.0310   84.0600    5.4490 N.3   146  THR146     -0.1218
    155  CA        53.9930   83.2180    6.1680 C.3   146  THR146      0.1862
    156  C         55.2130   84.0630    6.4430 C.2   146  THR146      0.2287
    157  O         55.8200   84.5860    5.5190 O.2   146  THR146     -0.2866
    158  CB        54.4200   82.0450    5.3390 C.3   146  THR146      0.1770
    159  OG1       53.2670   81.3790    4.7960 O.3   146  THR146     -0.2211
    160  CG2       55.1190   81.0050    6.2430 C.3   146  THR146      0.0375
    161  N         59.0870   84.0050    8.0080 N.3   148  ARG148     -0.1245
    162  CA        60.2420   83.1610    8.3380 C.3   148  ARG148      0.1563
    163  C         60.8150   83.6520    9.6760 C.2   148  ARG148      0.2260
    164  O         60.9230   84.8320    9.8680 O.2   148  ARG148     -0.2867
    165  CB        61.3260   83.2800    7.2850 C.3   148  ARG148      0.0307
    166  CG        62.5080   82.3890    7.5700 C.3   148  ARG148      0.0489
    167  CD        63.4940   82.4090    6.4670 C.3   148  ARG148      0.2205
    168  NE        62.9930   81.5500    5.4020 N.pl3 148  ARG148     -0.0865
    169  CZ        63.4420   81.5500    4.1750 C.cat 148  ARG148      0.5346
    170  NH1       64.4280   82.3490    3.8340 N.pl3 148  ARG148      0.1354
    171  NH2       62.9140   80.7470    3.2820 N.pl3 148  ARG148      0.1354
    172  N         65.1310   81.6240   -0.8890 N.3   155  VAL155     -0.1231
    173  CA        63.6970   81.3620   -0.9360 C.3   155  VAL155      0.1692
    174  C         63.3710   79.9700   -0.3890 C.2   155  VAL155      0.2592
    175  O         62.5590   79.8520    0.5100 O.2   155  VAL155     -0.2718
    176  CB        63.1600   81.5180   -2.3620 C.3   155  VAL155      0.0266
    177  CG1       61.7440   80.9220   -2.4630 C.3   155  VAL155      0.0020
    178  CG2       63.1550   83.0030   -2.7320 C.3   155  VAL155      0.0020
    179  N         64.0310   78.9420   -0.8980 N.am  156  GLU156     -0.1966
    180  CA        63.7330   77.5770   -0.5170 C.3   156  GLU156      0.1733
    181  C         64.4420   77.1720    0.7710 C.2   156  GLU156      0.2616
    182  O         65.6520   76.9590    0.7690 O.2   156  GLU156     -0.2715
    183  CB        64.0670   76.6020   -1.6350 C.3   156  GLU156      0.0429
    184  CG        63.6930   75.1640   -1.2750 C.3   156  GLU156      0.1163
    185  CD        63.7620   74.1900   -2.4370 C.2   156  GLU156      0.3649
    186  OE1       63.7330   74.6330   -3.5890 O.co2 156  GLU156     -0.2457
    187  OE2       63.8190   72.9720   -2.1740 O.co2 156  GLU156     -0.2457
    188  N         63.6850   77.1240    1.8600 N.am  157  VAL157     -0.1963
    189  CA        64.1230   76.5760    3.1230 C.3   157  VAL157      0.1727
    190  C         62.9960   75.7100    3.6610 C.2   157  VAL157      0.2616
    191  O         62.0010   76.2220    4.1580 O.2   157  VAL157     -0.2715
    192  CB        64.4550   77.6590    4.1460 C.3   157  VAL157      0.0290
    193  CG1       64.7590   77.0140    5.5160 C.3   157  VAL157      0.0023
    194  CG2       65.6040   78.5430    3.6560 C.3   157  VAL157      0.0023
    195  N         63.1570   74.4230    3.5150 N.am  158  ILE158     -0.1963
    196  CA        62.1960   73.4390    3.9800 C.3   158  ILE158      0.1727
    197  C         62.0630   73.4980    5.5110 C.2   158  ILE158      0.2616
    198  O         63.0460   73.5830    6.2430 O.2   158  ILE158     -0.2715
    199  CB        62.6130   72.0140    3.5200 C.3   158  ILE158      0.0290
    200  CG1       62.6620   71.8650    1.9920 C.3   158  ILE158      0.0022
    201  CG2       61.7090   70.9740    4.1070 C.3   158  ILE158      0.0023
    202  CD1       61.3760   72.3020    1.2550 C.3   158  ILE158      0.0001
    203  N         60.8310   73.4730    6.0030 N.am  159  GLY159     -0.1955
    204  CA        60.5970   73.5110    7.4260 C.3   159  GLY159      0.1869
    205  C         59.1690   73.7590    7.7630 C.2   159  GLY159      0.2309
    206  O         58.3670   74.0910    6.8820 O.2   159  GLY159     -0.2863
    207  N         58.8150   78.7610   10.5290 N.3   164  TYR164     -0.1241
    208  CA        57.8230   79.6850    9.9410 C.3   164  TYR164      0.1605
    209  C         56.6050   79.8340   10.8320 C.2   164  TYR164      0.2264
    210  O         56.1910   78.8700   11.4730 O.2   164  TYR164     -0.2867
    211  CB        57.3290   79.1600    8.5820 C.3   164  TYR164      0.0534
    212  CG        58.3560   79.0050    7.5230 C.ar  164  TYR164     -0.0201
    213  CD1       58.7000   80.0700    6.6990 C.ar  164  TYR164     -0.0009
    214  CD2       58.9490   77.7800    7.2750 C.ar  164  TYR164     -0.0009
    215  CE1       59.6120   79.9130    5.6750 C.ar  164  TYR164      0.0417
    216  CE2       59.8880   77.6290    6.2570 C.ar  164  TYR164      0.0417
    217  CZ        60.2020   78.7080    5.4640 C.ar  164  TYR164      0.1957
    218  OH        61.1190   78.5790    4.4430 O.3   164  TYR164     -0.2866
@<TRIPOS>BOND
     1   105   104    2
     2   104   103    1
     3    96    95    2
     4   146   145    2
     5   145   144    1
     6    95    94    1
     7    95   102   am
     8    94    93    1
     9    94    97    1
    10   103   102    1
    11   103   106    1
    12   143   144    1
    13   144   147    1
    14   106   107    1
    15    97    98    1
    16    87    86    2
    17    76    77    1
    18    86    85    1
    19    79    78    2
    20   147   148    1
    21   149   148   ar
    22   149   151   ar
    23   107   108   ar
    24   107   109   ar
    25   186   185   ar
    26    78    77    1
    27    78    84   am
    28   116   115    2
    29    98    99    1
    30   108   110   ar
    31    77    80    1
    32   148   150   ar
    33   100    99    2
    34   151   153   ar
    35    85    84    1
    36    85    88    1
    37    99   101   am
    38   178   176    1
    39   115   114    1
    40   109   111   ar
    41   177   176    1
    42   185   187   ar
    43   185   184    1
    44   176   173    1
    45    80    81    1
    46   110   112   ar
    47   131   129    1
    48    88    89    1
    49   113   114    1
    50   150   152   ar
    51   121   122    1
    52   153   152   ar
    53   183   184    1
    54   183   180    1
    55   122   123    1
    56   114   117    1
    57   111   112   ar
    58    81    82   ar
    59    81    83   ar
    60   125   123   am
    61   125   126    1
    62   173   172    1
    63   173   174    1
    64   130   129    1
    65   179   180    1
    66   179   174   am
    67   129   126    1
    68   117   118    1
    69    89    90    1
    70   123   124    2
    71   180   181    1
    72   174   175    2
    73   126   127    1
    74    91    90   ar
    75    45    46    1
    76    90    92   ar
    77    33    32    2
    78    36    37    1
    79    36    35    1
    80   118   119    1
    81   118   120    1
    82    37    38    1
    83   182   181    2
    84   181   188   am
    85    34    35    1
    86    34    31    1
    87    42    41    2
    88    32    31    1
    89    32    39   am
    90   127   128    2
    91   127   132   am
    92    49    46    1
    93    49    50    1
    94    40    39    1
    95    40    43    1
    96    40    41    1
    97   202   200    1
    98    46    47    1
    99    31    30    1
   100    43    44    1
   101   140   138   ar
   102   140   142   ar
   103   188   189    1
   104    48    47    2
   105   200   199    1
   106   132   133    1
   107   138   137   ar
   108   142   141   ar
   109    50    52   ar
   110    50    51   ar
   111    73    72    2
   112    30    28   am
   113   134   133    1
   114   134   135    2
   115   189   190    1
   116   189   192    1
   117   133   136    1
   118   171   169    1
   119    29    28    2
   120   137   136    1
   121   137   139   ar
   122   195   190   am
   123   195   196    1
   124   199   196    1
   125   199   201    1
   126   141   139   ar
   127   194   192    1
   128   190   191    2
   129    28    27    1
   130   170   169    1
   131    72    71    1
   132    25    24    1
   133    74    75    1
   134    74    71    1
   135   196   197    1
   136   192   193    1
   137   169   168    2
   138   218   217    1
   139    71    70    1
   140     1     2    1
   141    63    61    1
   142   159   158    1
   143     6     7    1
   144     6     5    1
   145    24    21    1
   146    27    26    1
   147   158   155    1
   148   158   160    1
   149    53    54    1
   150    23    22    2
   151   168   167    1
   152     2     5    1
   153     2     3    1
   154   154   155    1
   155   217   215   ar
   156   217   216   ar
   157   197   203   am
   158   197   198    2
   159   157   156    2
   160    26    22   am
   161   215   213   ar
   162     7     8    1
   163    22    21    1
   164    60    61    2
   165    60    59    1
   166    61    62    1
   167   203   204    1
   168    56    55    2
   169    70    66   am
   170    21    20    1
   171   155   156    1
   172   216   214   ar
   173   167   166    1
   174    20    11   am
   175     3     9   am
   176     3     4    2
   177   213   212   ar
   178    54    57    1
   179    54    55    1
   180    67    66    2
   181   206   205    2
   182     9    10    1
   183    57    58    1
   184    58    59    1
   185    66    65    1
   186   214   212   ar
   187   165   166    1
   188   165   162    1
   189   204   205    1
   190   212   211    1
   191    11    10    1
   192    11    12    2
   193    10    13    1
   194   161   162    1
   195   162   163    1
   196    65    64    1
   197    65    68    1
   198    69    68    1
   199   211   208    1
   200    13    14    1
   201    14    16   ar
   202    14    15   ar
   203    16    18   ar
   204    15    17   ar
   205   163   164    2
   206    18    19   ar
   207    17    19   ar
   208   208   207    1
   209   208   209    1
   210   209   210    2
