@<TRIPOS>MOLECULE
tmp/1w52A01.pdb
 155 153 0 0 0
SMALL
GASTEIGER

@<TRIPOS>ATOM
      1  N         15.6860   97.1070   17.7860 N.3    79  PHE79      -0.1227
      2  CA        16.2970   98.2880   17.1080 C.3    79  PHE79       0.1736
      3  C         16.8760   99.2770   18.1030 C.2    79  PHE79       0.2595
      4  O         16.1750   99.7640   19.0060 O.2    79  PHE79      -0.2718
      5  CB        15.2160   98.9730   16.2630 C.3    79  PHE79       0.0547
      6  CG        15.7100  100.0830   15.3650 C.ar   79  PHE79      -0.0202
      7  CD1       16.5280   99.8390   14.2840 C.ar   79  PHE79      -0.0042
      8  CD2       15.3040  101.3800   15.5710 C.ar   79  PHE79      -0.0042
      9  CE1       16.9760  100.8770   13.4900 C.ar   79  PHE79      -0.0003
     10  CE2       15.7600  102.4000   14.7420 C.ar   79  PHE79      -0.0003
     11  CZ        16.5930  102.1250   13.7170 C.ar   79  PHE79      -0.0000
     12  N         18.1750   99.4810   17.9860 N.am   80  ARG80      -0.1966
     13  CA        18.9080  100.5180   18.7270 C.3    80  ARG80       0.1729
     14  C         18.8260  100.4900   20.2280 C.2    80  ARG80       0.2616
     15  O         18.7660  101.5170   20.9060 O.2    80  ARG80      -0.2715
     16  CB        18.5240  101.9050   18.2310 C.3    80  ARG80       0.0348
     17  CG        18.8990  102.0430   16.7440 C.3    80  ARG80       0.0492
     18  CD        18.9710  103.4100   16.2810 C.3    80  ARG80       0.2205
     19  NE        20.3420  103.8840   16.2510 N.pl3  80  ARG80      -0.0865
     20  CZ        21.1120  103.9900   15.1670 C.cat  80  ARG80       0.5346
     21  NH1       20.6830  103.6080   13.9280 N.pl3  80  ARG80       0.1354
     22  NH2       22.3290  104.5170   15.3480 N.pl3  80  ARG80       0.1354
     23  N         18.8620   99.2760   20.7190 N.am   81  ASP81      -0.1971
     24  CA        18.8530   98.9810   22.1150 C.3    81  ASP81       0.1709
     25  C         20.0380   98.0130   22.3010 C.2    81  ASP81       0.2293
     26  O         20.6630   97.5670   21.2920 O.2    81  ASP81      -0.2864
     27  CB        17.5630   98.2610   22.4180 C.3    81  ASP81       0.1436
     28  CG        17.0330   98.5380   23.7860 C.2    81  ASP81       0.3671
     29  OD1       17.8020   98.8690   24.7310 O.co2  81  ASP81      -0.2456
     30  OD2       15.8090   98.3850   24.0000 O.co2  81  ASP81      -0.2456
     31  N         21.2460   97.4770   29.6400 N.3    86  SER86      -0.1202
     32  CA        19.8610   97.8920   29.4650 C.3    86  SER86       0.2020
     33  C         18.8860   96.9840   30.2740 C.2    86  SER86       0.2618
     34  O         19.2760   96.1060   31.0710 O.2    86  SER86      -0.2717
     35  CB        19.5330   97.9490   27.9560 C.3    86  SER86       0.2103
     36  OG        18.6230   99.0340   27.6120 O.3    86  SER86      -0.2182
     37  N         17.6140   97.2310   30.0620 N.am   87  TRP87      -0.1975
     38  CA        16.5400   96.4450   30.6350 C.3    87  TRP87       0.1640
     39  C         16.6200   94.9200   30.4640 C.2    87  TRP87       0.2290
     40  O         16.1150   94.2520   31.3410 O.2    87  TRP87      -0.2864
     41  CB        15.1820   96.9090   30.1010 C.3    87  TRP87       0.0576
     42  CG        15.0670   96.7820   28.6470 C.ar   87  TRP87       0.0006
     43  CD1       15.5400   97.6700   27.6860 C.ar   87  TRP87       0.0946
     44  CD2       14.4980   95.6930   27.9250 C.ar   87  TRP87       0.0152
     45  NE1       15.2810   97.1890   26.4270 N.ar   87  TRP87      -0.2442
     46  CE2       14.6320   95.9840   26.5390 C.ar   87  TRP87       0.0810
     47  CE3       13.8940   94.4920   28.2970 C.ar   87  TRP87       0.0012
     48  CZ2       14.1750   95.1220   25.5480 C.ar   87  TRP87       0.0191
     49  CZ3       13.4500   93.6290   27.3030 C.ar   87  TRP87       0.0001
     50  CH2       13.5950   93.9500   25.9400 C.ar   87  TRP87       0.0015
     51  N         17.2500  101.0130   10.2210 N.3   116  TYR116     -0.1241
     52  CA        16.0750  100.1310   10.3760 C.3   116  TYR116      0.1605
     53  C         15.9250   99.0110    9.3320 C.2   116  TYR116      0.2264
     54  O         15.7940   97.8420    9.6350 O.2   116  TYR116     -0.2867
     55  CB        14.7710  100.9480   10.4040 C.3   116  TYR116      0.0534
     56  CG        13.6220  100.0980   10.8580 C.ar  116  TYR116     -0.0201
     57  CD1       13.4940   99.6880   12.1640 C.ar  116  TYR116     -0.0009
     58  CD2       12.7190   99.6600    9.9900 C.ar  116  TYR116     -0.0009
     59  CE1       12.4390   98.8710   12.5720 C.ar  116  TYR116      0.0417
     60  CE2       11.6680   98.8230   10.3690 C.ar  116  TYR116      0.0417
     61  CZ        11.5170   98.4370   11.6520 C.ar  116  TYR116      0.1957
     62  OH        10.4160   97.6380   11.9710 O.3   116  TYR116     -0.2866
     63  N         11.4580   92.0290   22.6290 N.3   153  HIS153     -0.1226
     64  CA        10.8120   93.3460   22.4440 C.3   153  HIS153      0.1752
     65  C         11.0080   93.9540   21.0260 C.2   153  HIS153      0.2596
     66  O         12.1150   93.9960   20.5250 O.2   153  HIS153     -0.2718
     67  CB        11.3170   94.3780   23.4800 C.3   153  HIS153      0.0759
     68  CG        10.7800   95.7580   23.2300 C.ar  153  HIS153      0.0818
     69  ND1       11.5210   96.7430   22.6100 N.ar  153  HIS153     -0.2268
     70  CD2        9.5470   96.2940   23.4410 C.ar  153  HIS153      0.1154
     71  CE1       10.7760   97.8310   22.4800 C.ar  153  HIS153      0.1986
     72  NE2        9.5690   97.5810   22.9510 N.ar  153  HIS153     -0.2212
     73  N          9.9220   94.4620   20.4260 N.am  154  SER154     -0.1952
     74  CA         9.9670   95.1780   19.1440 C.3   154  SER154      0.1924
     75  C         10.5950   94.2650   18.1240 C.2   154  SER154      0.2314
     76  O         10.0750   93.2210   17.8160 O.2   154  SER154     -0.2863
     77  CB        10.7200   96.5450   19.2320 C.3   154  SER154      0.2116
     78  OG        10.8680   97.2510   17.9640 O.3   154  SER154     -0.2180
     79  N          7.3800   94.7600   16.5070 N.3   180  ALA180     -0.1245
     80  CA         7.4900   95.8700   15.5790 C.3   180  ALA180      0.1562
     81  C          6.4840   95.7320   14.4550 C.2   180  ALA180      0.2260
     82  O          6.1850   94.6100   14.0300 O.2   180  ALA180     -0.2867
     83  CB         8.8760   95.9140   15.0120 C.3   180  ALA180      0.0290
     84  N          6.5250   98.1220   11.2200 N.3   182  PRO182     -0.2116
     85  CA         7.1850   98.3280    9.9170 C.3   182  PRO182      0.1372
     86  C          7.8810   97.1040    9.3940 C.2   182  PRO182      0.2244
     87  O          8.7470   96.6210   10.0910 O.2   182  PRO182     -0.2868
     88  CB         8.2610   99.3410   10.2440 C.3   182  PRO182      0.0268
     89  CG         7.7000  100.1200   11.3340 C.3   182  PRO182      0.0207
     90  CD         6.8430   99.2330   12.1350 C.3   182  PRO182      0.0892
     91  N          4.6220  102.3280   16.3660 N.3   217  PHE217     -0.1241
     92  CA         5.6600  101.3260   16.1690 C.3   217  PHE217      0.1605
     93  C          5.2480   99.8860   16.4070 C.2   217  PHE217      0.2264
     94  O          5.8800   98.9570   15.8950 O.2   217  PHE217     -0.2867
     95  CB         6.8360  101.6630   17.0820 C.3   217  PHE217      0.0534
     96  CG         7.5780  102.8970   16.6600 C.ar  217  PHE217     -0.0203
     97  CD1        8.0790  103.0200   15.3510 C.ar  217  PHE217     -0.0042
     98  CD2        7.7560  103.9560   17.5350 C.ar  217  PHE217     -0.0042
     99  CE1        8.7290  104.1540   14.9670 C.ar  217  PHE217     -0.0003
    100  CE2        8.4330  105.0620   17.1510 C.ar  217  PHE217     -0.0003
    101  CZ         8.9050  105.1650   15.8870 C.ar  217  PHE217     -0.0000
    102  N         17.3520  107.6970   18.4340 N.3   243  PHE243     -0.1241
    103  CA        17.8580  106.5630   17.6840 C.3   243  PHE243      0.1605
    104  C         19.1860  107.0770   17.0680 C.2   243  PHE243      0.2264
    105  O         19.2420  107.4750   15.8980 O.2   243  PHE243     -0.2867
    106  CB        16.8330  106.0530   16.6330 C.3   243  PHE243      0.0534
    107  CG        15.3440  106.1990   17.0170 C.ar  243  PHE243     -0.0203
    108  CD1       14.3790  105.7440   16.1560 C.ar  243  PHE243     -0.0042
    109  CD2       14.9010  106.7820   18.1920 C.ar  243  PHE243     -0.0042
    110  CE1       13.0320  105.8920   16.4560 C.ar  243  PHE243     -0.0003
    111  CE2       13.5130  106.9240   18.4850 C.ar  243  PHE243     -0.0003
    112  CZ        12.6170  106.4940   17.6320 C.ar  243  PHE243     -0.0000
    113  N         13.2800  111.1450   21.6110 N.3   254  GLN254     -0.1245
    114  CA        13.3010  109.7040   21.9630 C.3   254  GLN254      0.1566
    115  C         12.1750  109.2670   22.9010 C.2   254  GLN254      0.2260
    116  O         11.2630  108.5080   22.5120 O.2   254  GLN254     -0.2867
    117  CB        14.5800  109.3490   22.7240 C.3   254  GLN254      0.0367
    118  CG        15.7970  109.0300   21.8730 C.3   254  GLN254      0.0905
    119  CD        15.7230  107.6730   21.3290 C.2   254  GLN254      0.2608
    120  OE1       14.6150  107.1880   21.1030 O.2   254  GLN254     -0.2717
    121  NE2       16.8750  107.0240   21.1400 N.am  254  GLN254     -0.0878
    122  N          9.0880  107.0860   21.8450 N.3   258  ALA258     -0.1245
    123  CA         9.1570  105.6220   22.1470 C.3   258  ALA258      0.1562
    124  C          8.4570  105.1370   23.4500 C.2   258  ALA258      0.2260
    125  O          8.4710  103.9470   23.7870 O.2   258  ALA258     -0.2867
    126  CB        10.6160  105.1790   22.2280 C.3   258  ALA258      0.0290
    127  N          5.7840  102.3340   23.0760 N.3   261  HIS261     -0.1226
    128  CA         6.4870  101.1080   22.5610 C.3   261  HIS261      0.1752
    129  C          7.2100  100.3510   23.6930 C.2   261  HIS261      0.2595
    130  O          7.2740   99.1200   23.7260 O.2   261  HIS261     -0.2718
    131  CB         7.5040  101.5510   21.5000 C.3   261  HIS261      0.0759
    132  CG         8.0280  100.4720   20.6190 C.ar  261  HIS261      0.0818
    133  ND1        7.2200   99.5480   20.0030 N.ar  261  HIS261     -0.2268
    134  CD2        9.2830  100.2450   20.1680 C.ar  261  HIS261      0.1154
    135  CE1        7.9710   98.7570   19.2520 C.ar  261  HIS261      0.1986
    136  NE2        9.2250   99.1670   19.3240 N.ar  261  HIS261     -0.2212
    137  N          7.7270  101.1340   24.6280 N.am  262  LEU262     -0.1980
    138  CA         8.4970  100.6170   25.7170 C.3   262  LEU262      0.1596
    139  C          7.6180  100.1580   26.8560 C.2   262  LEU262      0.2287
    140  O          8.0660   99.3980   27.6790 O.2   262  LEU262     -0.2864
    141  CB         9.4850  101.6760   26.2070 C.3   262  LEU262      0.0297
    142  CG        10.5160  102.1520   25.1800 C.3   262  LEU262      0.0022
    143  CD1       11.5530  102.9470   25.8550 C.3   262  LEU262      0.0001
    144  CD2       11.2430  101.1160   24.3880 C.3   262  LEU262      0.0001
    145  N          7.6570   96.2560   27.6170 N.3   265  PHE265     -0.1241
    146  CA         8.6390   95.5890   28.5030 C.3   265  PHE265      0.1605
    147  C          8.6560   96.0900   29.9510 C.2   265  PHE265      0.2264
    148  O          9.3170   95.5380   30.8140 O.2   265  PHE265     -0.2867
    149  CB        10.0780   95.5680   27.9280 C.3   265  PHE265      0.0534
    150  CG        10.8020   96.8690   27.9920 C.ar  265  PHE265     -0.0203
    151  CD1       11.2300   97.3810   29.1950 C.ar  265  PHE265     -0.0042
    152  CD2       11.1120   97.5600   26.8210 C.ar  265  PHE265     -0.0042
    153  CE1       11.9540   98.5780   29.2360 C.ar  265  PHE265     -0.0003
    154  CE2       11.8320   98.7330   26.8690 C.ar  265  PHE265     -0.0003
    155  CZ        12.2580   99.2370   28.0770 C.ar  265  PHE265     -0.0000
@<TRIPOS>BOND
     1    53    54    2
     2    53    52    1
     3    86    85    1
     4    86    87    2
     5    85    88    1
     6    85    84    1
     7    58    60   ar
     8    58    56   ar
     9    51    52    1
    10    88    89    1
    11    60    61   ar
    12    52    55    1
    13    55    56    1
    14    56    57   ar
    15    84    90    1
    16    89    90    1
    17    61    62    1
    18    61    59   ar
    19    57    59   ar
    20     9    11   ar
    21     9     7   ar
    22    11    10   ar
    23    21    20    1
    24    82    81    2
    25     7     6   ar
    26    81    80    1
    27    10     8   ar
    28    99    97   ar
    29    99   101   ar
    30    83    80    1
    31    20    22    1
    32    20    19    2
    33    97    96   ar
    34     6     8   ar
    35     6     5    1
    36    80    79    1
    37   101   100   ar
    38    94    93    2
    39   105   104    2
    40   108   110   ar
    41   108   107   ar
    42    92    91    1
    43    92    93    1
    44    92    95    1
    45    19    18    1
    46     5     2    1
    47    18    17    1
    48   110   112   ar
    49   106   107    1
    50   106   103    1
    51    96    95    1
    52    96    98   ar
    53    17    16    1
    54   107   109   ar
    55   104   103    1
    56     2     1    1
    57     2     3    1
    58   100    98   ar
    59   112   111   ar
    60   103   102    1
    61    76    75    2
    62    78    77    1
    63    12     3   am
    64    12    13    1
    65     3     4    2
    66    75    74    1
    67   109   111   ar
    68    16    13    1
    69    13    14    1
    70    74    77    1
    71    74    73    1
    72   135   136   ar
    73   135   133   ar
    74   136   134   ar
    75   133   132   ar
    76   134   132   ar
    77    14    23   am
    78    14    15    2
    79    73    65   am
    80    66    65    2
    81   132   131    1
    82    23    24    1
    83    65    64    1
    84   120   119    2
    85   121   119   am
    86    26    25    2
    87   119   118    1
    88   131   128    1
    89   113   114    1
    90   122   123    1
    91   118   117    1
    92   114   117    1
    93   114   115    1
    94    24    25    1
    95    24    27    1
    96   123   126    1
    97   123   124    1
    98    27    28    1
    99    64    63    1
   100    64    67    1
   101    71    69   ar
   102    71    72   ar
   103   116   115    2
   104   128   127    1
   105   128   129    1
   106    69    68   ar
   107    72    70   ar
   108    68    70   ar
   109    68    67    1
   110   124   125    2
   111   129   130    2
   112   129   137   am
   113    28    30   ar
   114    28    29   ar
   115   144   142    1
   116   137   138    1
   117   142   143    1
   118   142   141    1
   119    48    50   ar
   120    48    46   ar
   121   138   141    1
   122   138   139    1
   123    50    49   ar
   124    45    46   ar
   125    45    43   ar
   126    46    44   ar
   127   152   154   ar
   128   152   150   ar
   129   139   140    2
   130   154   155   ar
   131    49    47   ar
   132    36    35    1
   133   145   146    1
   134    43    42   ar
   135    44    47   ar
   136    44    42   ar
   137   149   150    1
   138   149   146    1
   139    35    32    1
   140   150   151   ar
   141   155   153   ar
   142   146   147    1
   143    42    41    1
   144   151   153   ar
   145    32    31    1
   146    32    33    1
   147   147   148    2
   148    37    33   am
   149    37    38    1
   150    41    38    1
   151    33    34    2
   152    39    38    1
   153    39    40    2
