@<TRIPOS>MOLECULE
tmp/1w55A01.pdb
 143 132 0 0 0
SMALL
GASTEIGER

@<TRIPOS>ATOM
      1  N         85.6930   33.3860  -23.7720 N.3     8  LEU8       -0.1231
      2  CA        86.0400   34.5850  -23.0170 C.3     8  LEU8        0.1693
      3  C         84.7660   35.2850  -22.5450 C.2     8  LEU8        0.2592
      4  O         84.0450   35.8470  -23.3460 O.2     8  LEU8       -0.2718
      5  CB        86.9210   35.5160  -23.8710 C.3     8  LEU8        0.0284
      6  CG        88.3250   34.9730  -24.2000 C.3     8  LEU8        0.0019
      7  CD1       89.0150   35.8530  -25.2000 C.3     8  LEU8        0.0001
      8  CD2       89.2040   34.8250  -22.9400 C.3     8  LEU8        0.0001
      9  N         84.5080   35.2520  -21.2430 N.am    9  ALA9       -0.1966
     10  CA        83.2210   35.6820  -20.7000 C.3     9  ALA9        0.1728
     11  C         83.3550   36.5180  -19.4280 C.2     9  ALA9        0.2616
     12  O         82.3770   36.6870  -18.6970 O.2     9  ALA9       -0.2715
     13  CB        82.3380   34.4620  -20.4290 C.3     9  ALA9        0.0334
     14  N         84.5550   37.0350  -19.1660 N.am   10  ALA10      -0.1963
     15  CA        84.7910   37.8600  -17.9800 C.3    10  ALA10       0.1728
     16  C         84.6690   39.3490  -18.2850 C.2    10  ALA10       0.2616
     17  O         84.4290   39.7460  -19.4210 O.2    10  ALA10      -0.2715
     18  CB        86.1590   37.5390  -17.3580 C.3    10  ALA10       0.0334
     19  N         84.8310   40.1680  -17.2510 N.am   11  GLY11      -0.1955
     20  CA        84.7230   41.6110  -17.3750 C.3    11  GLY11       0.1869
     21  C         83.2860   42.1040  -17.3980 C.2    11  GLY11       0.2309
     22  O         82.3480   41.3430  -17.6730 O.2    11  GLY11      -0.2863
     23  N         81.3770   45.2230  -19.0890 N.3    13  SER13      -0.1217
     24  CA        81.3040   46.3960  -19.9420 C.3    13  SER13       0.1889
     25  C         80.0320   47.1710  -19.6350 C.2    13  SER13       0.2288
     26  O         78.9560   46.5790  -19.4690 O.2    13  SER13      -0.2866
     27  CB        81.3350   45.9900  -21.4200 C.3    13  SER13       0.2089
     28  OG        82.3960   46.6320  -22.1160 O.3    13  SER13      -0.2183
     29  N         79.3100   49.5270  -21.8020 N.3    15  ARG15      -0.1245
     30  CA        78.9760   49.8820  -23.1800 C.3    15  ARG15       0.1563
     31  C         77.5640   49.4190  -23.5540 C.2    15  ARG15       0.2260
     32  O         76.7860   50.1680  -24.1470 O.2    15  ARG15      -0.2867
     33  CB        80.0130   49.2930  -24.1440 C.3    15  ARG15       0.0307
     34  CG        80.3020   50.1540  -25.3690 C.3    15  ARG15       0.0489
     35  CD        81.7210   50.7070  -25.4380 C.3    15  ARG15       0.2205
     36  NE        82.7260   49.6530  -25.5730 N.pl3  15  ARG15      -0.0865
     37  CZ        84.0200   49.8660  -25.7920 C.cat  15  ARG15       0.5346
     38  NH1       84.8490   48.8370  -25.8940 N.pl3  15  ARG15       0.1354
     39  NH2       84.4920   51.1030  -25.9120 N.pl3  15  ARG15       0.1354
     40  N         75.1710   41.4280  -19.9540 N.3    22  LYS22      -0.1231
     41  CA        74.8620   40.7430  -21.2020 C.3    22  LYS22       0.1693
     42  C         75.0780   39.2300  -21.1530 C.2    22  LYS22       0.2591
     43  O         74.4000   38.4880  -21.8580 O.2    22  LYS22      -0.2718
     44  CB        75.5640   41.4070  -22.3900 C.3    22  LYS22       0.0285
     45  CG        77.0190   41.0080  -22.6100 C.3    22  LYS22       0.0035
     46  CD        77.4570   41.4660  -23.9910 C.3    22  LYS22       0.0206
     47  CE        78.3600   42.6630  -23.8990 C.3    22  LYS22       0.1093
     48  NZ        79.7710   42.2120  -24.0130 N.3    22  LYS22      -0.1314
     49  N         75.9840   38.7680  -20.3010 N.am   23  GLN23      -0.1979
     50  CA        76.2480   37.3320  -20.2040 C.3    23  GLN23       0.1601
     51  C         75.1000   36.5560  -19.5490 C.2    23  GLN23       0.2287
     52  O         75.0260   35.3290  -19.7030 O.2    23  GLN23      -0.2864
     53  CB        77.5850   37.0240  -19.5190 C.3    23  GLN23       0.0394
     54  CG        77.9740   37.9530  -18.3860 C.3    23  GLN23       0.0908
     55  CD        78.7610   39.1640  -18.8660 C.2    23  GLN23       0.2608
     56  OE1       78.1970   40.2520  -19.0070 O.2    23  GLN23      -0.2717
     57  NE2       80.0640   38.9800  -19.1130 N.am   23  GLN23      -0.0878
     58  N         86.3840   31.9410  -19.0030 N.3    52  THR52      -0.1218
     59  CA        86.8410   32.9770  -18.0850 C.3    52  THR52       0.1862
     60  C         85.6230   33.7070  -17.5470 C.2    52  THR52       0.2287
     61  O         84.6600   33.9380  -18.2770 O.2    52  THR52      -0.2866
     62  CB        87.8070   33.9650  -18.7630 C.3    52  THR52       0.1770
     63  OG1       87.0910   34.7380  -19.7320 O.3    52  THR52      -0.2211
     64  CG2       88.8780   33.2360  -19.5650 C.3    52  THR52       0.0375
     65  N         90.9380   38.4270  -15.9650 N.3    72  GLY72      -0.1210
     66  CA        91.9180   39.4470  -15.6160 C.3    72  GLY72       0.1956
     67  C         91.3630   40.8240  -15.9260 C.2    72  GLY72       0.2612
     68  O         90.1560   40.9650  -16.1570 O.2    72  GLY72      -0.2717
     69  N         92.2420   41.8290  -15.9620 N.am   73  ASP73      -0.1959
     70  CA        91.8430   43.2200  -16.2270 C.3    73  ASP73       0.1840
     71  C         91.5140   43.4980  -17.6980 C.2    73  ASP73       0.2623
     72  O         90.8290   44.4680  -18.0260 O.2    73  ASP73      -0.2715
     73  CB        92.9470   44.1880  -15.7730 C.3    73  ASP73       0.1450
     74  CG        93.1940   44.1530  -14.2600 C.2    73  ASP73       0.3671
     75  OD1       92.4250   43.5010  -13.5210 O.co2  73  ASP73      -0.2456
     76  OD2       94.1500   44.7610  -13.7240 O.co2  73  ASP73      -0.2456
     77  N         92.0390   42.6710  -18.5920 N.am   74  THR74      -0.1937
     78  CA        91.7520   42.8200  -20.0110 C.3    74  THR74       0.2028
     79  C         91.4340   41.4610  -20.6170 C.2    74  THR74       0.2642
     80  O         91.7370   40.4170  -20.0290 O.2    74  THR74      -0.2714
     81  CB        92.9610   43.4380  -20.7510 C.3    74  THR74       0.1808
     82  OG1       94.1040   42.5910  -20.5740 O.3    74  THR74      -0.2208
     83  CG2       93.3920   44.7690  -20.1260 C.3    74  THR74       0.0379
     84  N         90.8350   41.4910  -21.8040 N.am   75  ARG75      -0.1977
     85  CA        90.6580   40.3020  -22.6260 C.3    75  ARG75       0.1597
     86  C         91.9320   39.4510  -22.6680 C.2    75  ARG75       0.2287
     87  O         91.8980   38.2460  -22.3680 O.2    75  ARG75      -0.2864
     88  CB        90.2400   40.7220  -24.0400 C.3    75  ARG75       0.0334
     89  CG        89.7540   39.5820  -24.9330 C.3    75  ARG75       0.0492
     90  CD        89.4500   40.0290  -26.3620 C.3    75  ARG75       0.2205
     91  NE        88.9170   38.9580  -27.2040 N.pl3  75  ARG75      -0.0865
     92  CZ        89.6430   37.9920  -27.7780 C.cat  75  ARG75       0.5346
     93  NH1       90.9640   37.9200  -27.6000 N.pl3  75  ARG75       0.1354
     94  NH2       89.0370   37.0810  -28.5340 N.pl3  75  ARG75       0.1354
     95  N         92.7270   37.7850  -19.2790 N.3    78  SER78      -0.1217
     96  CA        91.8520   36.6290  -19.0560 C.3    78  SER78       0.1889
     97  C         92.3070   35.4540  -19.9080 C.2    78  SER78       0.2288
     98  O         92.4030   34.3260  -19.4260 O.2    78  SER78      -0.2866
     99  CB        90.3930   36.9670  -19.3600 C.3    78  SER78       0.2089
    100  OG        89.9570   38.0630  -18.5720 O.3    78  SER78      -0.2183
    101  N         84.8920   35.0950  -28.1470 N.3    95  ASP95      -0.1225
    102  CA        84.0610   35.9650  -27.3130 C.3    95  ASP95       0.1805
    103  C         82.6990   35.2990  -27.0720 C.2    95  ASP95       0.2598
    104  O         82.0720   34.8610  -28.0290 O.2    95  ASP95      -0.2718
    105  CB        83.8240   37.2980  -28.0320 C.3    95  ASP95       0.1424
    106  CG        85.1170   37.9490  -28.5530 C.2    95  ASP95       0.3668
    107  OD1       86.1940   37.7970  -27.9360 O.co2  95  ASP95      -0.2456
    108  OD2       85.1370   38.6590  -29.5750 O.co2  95  ASP95      -0.2456
    109  N         82.2170   35.2270  -25.8270 N.am   96  VAL96      -0.1966
    110  CA        80.8510   34.6990  -25.6080 C.3    96  VAL96       0.1727
    111  C         79.8060   35.5790  -26.2530 C.2    96  VAL96       0.2616
    112  O         78.7280   35.1040  -26.5930 O.2    96  VAL96      -0.2715
    113  CB        80.4080   34.5240  -24.1120 C.3    96  VAL96       0.0290
    114  CG1       80.9100   33.2440  -23.5310 C.3    96  VAL96       0.0023
    115  CG2       80.7440   35.7300  -23.2510 C.3    96  VAL96       0.0023
    116  N         80.1160   36.8610  -26.4090 N.am   97  ALA97      -0.1977
    117  CA        79.1640   37.8110  -26.9710 C.3    97  ALA97       0.1597
    118  C         78.9380   37.6070  -28.4700 C.2    97  ALA97       0.2287
    119  O         78.0410   38.2170  -29.0440 O.2    97  ALA97      -0.2864
    120  CB        79.5780   39.2490  -26.6610 C.3    97  ALA97       0.0319
    121  N         93.5380   43.1980  -28.6660 N.3   166  THR166     -0.1218
    122  CA        92.0820   43.0450  -28.6190 C.3   166  THR166      0.1862
    123  C         91.6320   41.7490  -29.2970 C.2   166  THR166      0.2287
    124  O         90.4580   41.3790  -29.2230 O.2   166  THR166     -0.2866
    125  CB        91.3670   44.2370  -29.2800 C.3   166  THR166      0.1770
    126  OG1       91.7610   44.3130  -30.6550 O.3   166  THR166     -0.2211
    127  CG2       91.8170   45.5820  -28.6690 C.3   166  THR166      0.0375
    128  N         79.5190   40.4990  -32.7100 N.3   190  LYS190     -0.1245
    129  CA        79.6540   40.5790  -31.2620 C.3   190  LYS190      0.1561
    130  C         78.5950   41.5010  -30.6650 C.2   190  LYS190      0.2260
    131  O         78.5040   42.6770  -31.0260 O.2   190  LYS190     -0.2867
    132  CB        81.0570   41.0650  -30.9070 C.3   190  LYS190      0.0271
    133  CG        81.3750   41.1250  -29.4180 C.3   190  LYS190      0.0035
    134  CD        82.8740   41.3000  -29.1800 C.3   190  LYS190      0.0206
    135  CE        83.3310   42.7130  -29.5000 C.3   190  LYS190      0.1093
    136  NZ        84.8150   42.8070  -29.6790 N.3   190  LYS190     -0.1314
    137  N         77.5250   44.0470  -28.4560 N.3   192  THR192     -0.1218
    138  CA        78.2890   45.0830  -27.7640 C.3   192  THR192      0.1862
    139  C         77.3810   46.2030  -27.2750 C.2   192  THR192      0.2287
    140  O         77.4650   46.6180  -26.1190 O.2   192  THR192     -0.2866
    141  CB        79.3900   45.6410  -28.6930 C.3   192  THR192      0.1770
    142  OG1       80.3330   44.6080  -28.9810 O.3   192  THR192     -0.2211
    143  CG2       80.2340   46.7040  -27.9680 C.3   192  THR192      0.0375
@<TRIPOS>BOND
     1   128   129    1
     2   129   132    1
     3   129   130    1
     4   131   130    2
     5   132   133    1
     6   126   125    1
     7   136   135    1
     8   108   106   ar
     9   135   134    1
    10   133   134    1
    11   123   124    2
    12   123   122    1
    13   125   127    1
    14   125   122    1
    15   119   118    2
    16   142   141    1
    17   141   143    1
    18   141   138    1
    19   121   122    1
    20   106   105    1
    21   106   107   ar
    22    94    92    1
    23   118   117    1
    24   137   138    1
    25   101   102    1
    26   105   102    1
    27   104   103    2
    28    92    93    1
    29    92    91    2
    30   138   139    1
    31   102   103    1
    32   139   140    2
    33    91    90    1
    34   103   109   am
    35   117   120    1
    36   117   116    1
    37   112   111    2
    38   116   111   am
    39    90    89    1
    40   111   110    1
    41    39    37    1
    42    38    37    1
    43   109   110    1
    44    37    36    2
    45   110   113    1
    46    36    35    1
    47    35    34    1
    48    34    33    1
    49     7     6    1
    50    89    88    1
    51     6     5    1
    52     6     8    1
    53    32    31    2
    54    33    30    1
    55   113   114    1
    56   113   115    1
    57    88    85    1
    58    48    47    1
    59    46    47    1
    60    46    45    1
    61     5     2    1
    62     1     2    1
    63    31    30    1
    64     4     3    2
    65    30    29    1
    66     2     3    1
    67    86    85    1
    68    86    87    2
    69    85    84    1
    70    45    44    1
    71     3     9   am
    72    44    41    1
    73    28    27    1
    74    43    42    2
    75    84    79   am
    76    27    24    1
    77     9    10    1
    78    41    42    1
    79    41    40    1
    80    42    49   am
    81    81    82    1
    82    81    83    1
    83    81    78    1
    84    10    13    1
    85    10    11    1
    86    79    80    2
    87    79    78    1
    88    49    50    1
    89    50    51    1
    90    50    53    1
    91    78    77    1
    92    24    25    1
    93    24    23    1
    94    97    98    2
    95    97    96    1
    96    63    62    1
    97    52    51    2
    98    25    26    2
    99    64    62    1
   100    53    54    1
   101    11    14   am
   102    11    12    2
   103    17    16    2
   104    99    96    1
   105    99   100    1
   106    95    96    1
   107    14    15    1
   108    57    55   am
   109    56    55    2
   110    58    59    1
   111    55    54    1
   112    62    59    1
   113    77    71   am
   114    16    15    1
   115    16    19   am
   116    61    60    2
   117    59    60    1
   118    72    71    2
   119    15    18    1
   120    71    70    1
   121    22    21    2
   122    21    20    1
   123    20    19    1
   124    70    69    1
   125    70    73    1
   126    68    67    2
   127    65    66    1
   128    69    67   am
   129    67    66    1
   130    73    74    1
   131    74    76   ar
   132    74    75   ar
