@<TRIPOS>MOLECULE
tmp/1w58A00.pdb
 189 177 0 0 0
SMALL
GASTEIGER

@<TRIPOS>ATOM
      1  N         10.6920   29.2440   -3.5220 N.3    23  CYS23      -0.1221
      2  CA         9.8960   29.6330   -2.3530 C.3    23  CYS23       0.1808
      3  C          9.2900   31.0270   -2.4470 C.2    23  CYS23       0.2602
      4  O          9.9850   32.0000   -2.7560 O.2    23  CYS23      -0.2717
      5  CB        10.7560   29.5690   -1.0760 C.3    23  CYS23       0.0970
      6  SG        11.9250   28.1650   -0.9630 S.3    23  CYS23      -0.0800
      7  N          7.9960   31.1270   -2.1500 N.am   24  GLY24      -0.1942
      8  CA         7.3390   32.4150   -2.1940 C.3    24  GLY24       0.2014
      9  C          6.8650   32.7510   -3.5790 C.2    24  GLY24       0.2639
     10  O          6.9820   31.9290   -4.4970 O.2    24  GLY24      -0.2714
     11  N          6.3260   33.9590   -3.7330 N.am   25  GLY25      -0.1939
     12  CA         5.8230   34.3980   -5.0290 C.3    25  GLY25       0.2014
     13  C          6.8380   34.3690   -6.1500 C.2    25  GLY25       0.2638
     14  O          6.6360   33.6700   -7.1330 O.2    25  GLY25      -0.2714
     15  N          7.9170   35.1390   -6.0230 N.am   26  ALA26      -0.1977
     16  CA         8.9670   35.1730   -7.0410 C.3    26  ALA26       0.1597
     17  C          9.5270   33.7680   -7.3140 C.2    26  ALA26       0.2287
     18  O          9.7150   33.3750   -8.4540 O.2    26  ALA26      -0.2864
     19  CB        10.0810   36.0930   -6.5940 C.3    26  ALA26       0.0319
     20  N          7.1030   31.7220   -9.3170 N.3    29  ASN29      -0.1240
     21  CA         7.0680   32.2140  -10.6820 C.3    29  ASN29       0.1653
     22  C          8.2770   31.6890  -11.4690 C.2    29  ASN29       0.2266
     23  O          8.1320   31.2940  -12.6220 O.2    29  ASN29      -0.2867
     24  CB         7.0280   33.7420  -10.6970 C.3    29  ASN29       0.1155
     25  CG         6.9190   34.3110  -12.1010 C.2    29  ASN29       0.2627
     26  OD1        6.0920   33.8650  -12.9180 O.2    29  ASN29      -0.2716
     27  ND2        7.7500   35.3120  -12.3920 N.am   29  ASN29      -0.0877
     28  N          4.8870   27.3580   -0.8830 N.3    48  ASN48      -0.1225
     29  CA         4.3270   28.6350   -0.5190 C.3    48  ASN48       0.1785
     30  C          3.4310   28.5390    0.6900 C.2    48  ASN48       0.2598
     31  O          2.9190   27.4790    1.0710 O.2    48  ASN48      -0.2718
     32  CB         3.5450   29.2160   -1.7020 C.3    48  ASN48       0.1169
     33  CG         3.6810   30.7240   -1.8160 C.2    48  ASN48       0.2627
     34  OD1        3.7810   31.2630   -2.9160 O.2    48  ASN48      -0.2716
     35  ND2        3.6820   31.4090   -0.6880 N.am   48  ASN48      -0.0877
     36  N          3.2540   29.7000    1.2780 N.am   49  THR49      -0.1939
     37  CA         2.4360   29.8910    2.4460 C.3    49  THR49       0.2028
     38  C          1.0600   30.3560    1.9090 C.2    49  THR49       0.2642
     39  O          0.0370   30.1860    2.5750 O.2    49  THR49      -0.2714
     40  CB         3.1310   30.9470    3.2580 C.3    49  THR49       0.1808
     41  OG1        2.9930   30.6910    4.6510 O.3    49  THR49      -0.2208
     42  CG2        2.6460   32.2490    2.8810 C.3    49  THR49       0.0379
     43  N          1.0640   30.9110    0.6810 N.am   50  ASP50      -0.1971
     44  CA        -0.1280   31.4170   -0.0370 C.3    50  ASP50       0.1709
     45  C         -0.7370   30.3680   -0.9890 C.2    50  ASP50       0.2293
     46  O         -0.1690   30.0620   -2.0340 O.2    50  ASP50      -0.2864
     47  CB         0.2500   32.6560   -0.8650 C.3    50  ASP50       0.1436
     48  CG        -0.9600   33.3260   -1.5440 C.2    50  ASP50       0.3671
     49  OD1       -1.7030   32.6770   -2.3040 O.co2  50  ASP50      -0.2456
     50  OD2       -1.1630   34.5290   -1.3250 O.co2  50  ASP50      -0.2456
     51  N         -1.3980   31.4400   -4.8730 N.3    53  GLN53      -0.1245
     52  CA        -0.1730   31.5090   -5.6580 C.3    53  GLN53       0.1566
     53  C          0.3140   30.1110   -6.0020 C.2    53  GLN53       0.2260
     54  O          0.8100   29.8770   -7.0960 O.2    53  GLN53      -0.2867
     55  CB         0.9230   32.2650   -4.9050 C.3    53  GLN53       0.0367
     56  CG         0.7360   33.7670   -4.8610 C.3    53  GLN53       0.0905
     57  CD         1.9840   34.4980   -4.3690 C.2    53  GLN53       0.2608
     58  OE1        2.2070   35.6660   -4.7100 O.2    53  GLN53      -0.2717
     59  NE2        2.8020   33.8180   -3.5620 N.am   53  GLN53      -0.0878
     60  N         -1.0100   33.3010    2.8430 N.3    74  GLY74      -0.1210
     61  CA         0.1850   34.1360    2.8040 C.3    74  GLY74       0.1956
     62  C          0.8640   34.3930    4.1450 C.2    74  GLY74       0.2612
     63  O          0.3790   33.9540    5.2080 O.2    74  GLY74      -0.2717
     64  N          1.9980   35.0910    4.1000 N.am   75  ALA75      -0.1965
     65  CA         2.7440   35.4010    5.3150 C.3    75  ALA75       0.1728
     66  C          2.8280   36.8920    5.5400 C.2    75  ALA75       0.2617
     67  O          3.5010   37.3410    6.4630 O.2    75  ALA75      -0.2715
     68  CB         4.1440   34.8190    5.2470 C.3    75  ALA75       0.0334
     69  N          2.1560   37.6500    4.6770 N.am   76  GLY76      -0.1940
     70  CA         2.1230   39.0970    4.7770 C.3    76  GLY76       0.2014
     71  C          3.4350   39.8430    4.9240 C.2    76  GLY76       0.2639
     72  O          3.5160   40.7990    5.6920 O.2    76  GLY76      -0.2714
     73  N          4.4600   39.4190    4.1880 N.am   77  GLY77      -0.1954
     74  CA         5.7530   40.0790    4.2540 C.3    77  GLY77       0.1869
     75  C          6.5440   39.9220    5.5460 C.2    77  GLY77       0.2309
     76  O          7.5080   40.6390    5.7430 O.2    77  GLY77      -0.2863
     77  N         13.0020   35.3340   -4.3520 N.3   108  GLY108     -0.1210
     78  CA        13.3890   36.7330   -4.3710 C.3   108  GLY108      0.1956
     79  C         13.3410   37.0860   -2.8980 C.2   108  GLY108      0.2611
     80  O         12.3180   36.8700   -2.2840 O.2   108  GLY108     -0.2717
     81  N         14.4190   37.5770   -2.3030 N.am  109  LEU109     -0.1979
     82  CA        14.3560   37.8860   -0.8730 C.3   109  LEU109      0.1596
     83  C         13.7080   39.2460   -0.6970 C.2   109  LEU109      0.2287
     84  O         13.8160   40.1050   -1.5810 O.2   109  LEU109     -0.2864
     85  CB        15.7680   37.8870   -0.2410 C.3   109  LEU109      0.0297
     86  CG        16.5780   36.5750   -0.2650 C.3   109  LEU109      0.0022
     87  CD1       18.0400   36.8110    0.1280 C.3   109  LEU109      0.0001
     88  CD2       15.9470   35.5730    0.6650 C.3   109  LEU109      0.0001
     89  N         10.3060   39.5500    0.9790 N.3   111  GLY111     -0.1210
     90  CA         8.9970   39.3170    1.5500 C.3   111  GLY111      0.1956
     91  C          9.0680   38.3920    2.7570 C.2   111  GLY111      0.2612
     92  O         10.1170   38.2570    3.3900 O.2   111  GLY111     -0.2717
     93  N          7.9630   37.7170    3.0530 N.am  112  GLY112     -0.1942
     94  CA         7.9290   36.8550    4.2090 C.3   112  GLY112      0.2014
     95  C          8.1400   35.3720    4.0040 C.2   112  GLY112      0.2640
     96  O          8.8120   34.7520    4.8330 O.2   112  GLY112     -0.2714
     97  N          7.6060   34.8000    2.9230 N.am  113  THR113     -0.1936
     98  CA         7.7230   33.3680    2.6920 C.3   113  THR113      0.2028
     99  C          9.0970   32.9160    2.1880 C.2   113  THR113      0.2642
    100  O          9.6830   31.9710    2.7240 O.2   113  THR113     -0.2714
    101  CB         6.6170   32.8890    1.7340 C.3   113  THR113      0.1808
    102  OG1        5.3470   33.2000    2.3070 O.3   113  THR113     -0.2208
    103  CG2        6.6470   31.3850    1.5490 C.3   113  THR113      0.0379
    104  N          9.6120   33.5760    1.1620 N.am  114  GLY114     -0.1954
    105  CA        10.9110   33.2110    0.6280 C.3   114  GLY114      0.1869
    106  C         12.0570   33.4900    1.5900 C.2   114  GLY114      0.2309
    107  O         12.8970   32.6250    1.8240 O.2   114  GLY114     -0.2863
    108  N         17.6710   36.8290   -5.2990 N.3   137  THR137     -0.1203
    109  CA        17.8270   38.2420   -5.6360 C.3   137  THR137      0.1994
    110  C         17.5870   39.1400   -4.4260 C.2   137  THR137      0.2618
    111  O         16.8790   38.7830   -3.4770 O.2   137  THR137     -0.2717
    112  CB        16.8420   38.7190   -6.7710 C.3   137  THR137      0.1784
    113  OG1       15.4880   38.4770   -6.3740 O.3   137  THR137     -0.2211
    114  CG2       17.1040   38.0060   -8.0920 C.3   137  THR137      0.0376
    115  N         18.2140   40.3040   -4.4610 N.am  138  LEU138     -0.1966
    116  CA        18.0400   41.3180   -3.4300 C.3   138  LEU138      0.1713
    117  C         17.0300   42.2660   -4.1060 C.2   138  LEU138      0.2458
    118  O         17.0970   42.4440   -5.3150 O.2   138  LEU138     -0.2730
    119  CB        19.3710   42.0160   -3.1830 C.3   138  LEU138      0.0310
    120  CG        20.0700   41.7760   -1.8490 C.3   138  LEU138      0.0022
    121  CD1       19.7430   40.4060   -1.2750 C.3   138  LEU138      0.0001
    122  CD2       21.5600   41.9620   -2.0800 C.3   138  LEU138      0.0001
    123  N         16.0950   42.8820   -3.3500 N.am  139  PRO139     -0.2727
    124  CA        15.0970   43.7870   -3.9570 C.3   139  PRO139      0.1402
    125  C         15.6300   45.1020   -4.5440 C.2   139  PRO139      0.2269
    126  O         16.7540   45.5290   -4.2280 O.2   139  PRO139     -0.2865
    127  CB        14.1390   44.0460   -2.8030 C.3   139  PRO139      0.0296
    128  CG        15.1030   44.1590   -1.6280 C.3   139  PRO139      0.0237
    129  CD        16.0290   42.9520   -1.8730 C.3   139  PRO139      0.0939
    130  N         11.8540   49.7060   -3.6840 N.3   143  GLU143     -0.1245
    131  CA        10.9550   48.9280   -2.8580 C.3   143  GLU143      0.1567
    132  C         11.0460   49.3950   -1.4020 C.2   143  GLU143      0.2260
    133  O         10.1810   49.0780   -0.5890 O.2   143  GLU143     -0.2867
    134  CB        11.2750   47.4400   -2.9700 C.3   143  GLU143      0.0388
    135  CG        11.1690   46.8690   -4.3900 C.3   143  GLU143      0.1160
    136  CD        11.1480   45.3480   -4.3880 C.2   143  GLU143      0.3649
    137  OE1       10.4300   44.7970   -3.5350 O.co2 143  GLU143     -0.2457
    138  OE2       11.8230   44.7090   -5.2230 O.co2 143  GLU143     -0.2457
    139  N         12.0390   46.4100    3.1260 N.3   147  ARG147     -0.1245
    140  CA        12.1600   45.2560    2.2860 C.3   147  ARG147      0.1563
    141  C         13.6280   44.8570    2.1620 C.2   147  ARG147      0.2260
    142  O         13.9400   43.6680    2.1440 O.2   147  ARG147     -0.2867
    143  CB        11.5200   45.5210    0.9250 C.3   147  ARG147      0.0307
    144  CG        10.7900   44.3070    0.3410 C.3   147  ARG147      0.0489
    145  CD         9.4230   44.6560   -0.2200 C.3   147  ARG147      0.2205
    146  NE         8.3680   43.9100    0.4640 N.pl3 147  ARG147     -0.0865
    147  CZ         7.9410   42.6860    0.1320 C.cat 147  ARG147      0.5346
    148  NH1        8.4540   42.0230   -0.8990 N.pl3 147  ARG147      0.1354
    149  NH2        6.9950   42.1090    0.8610 N.pl3 147  ARG147      0.1354
    150  N         19.0740   42.9540   -7.7500 N.3   170  ASN170     -0.1240
    151  CA        18.1970   43.5380   -8.7770 C.3   170  ASN170      0.1653
    152  C         18.4910   45.0060   -9.1080 C.2   170  ASN170      0.2266
    153  O         18.2820   45.4340  -10.2330 O.2   170  ASN170     -0.2867
    154  CB        16.7280   43.4400   -8.3640 C.3   170  ASN170      0.1155
    155  CG        16.1080   42.0730   -8.6460 C.2   170  ASN170      0.2627
    156  OD1       15.0360   41.7740   -8.1420 O.2   170  ASN170     -0.2716
    157  ND2       16.7580   41.2610   -9.4560 N.am  170  ASN170     -0.0877
    158  N         10.7140   43.8300  -13.1500 N.3   186  PHE186     -0.1241
    159  CA        10.5570   42.4480  -12.7390 C.3   186  PHE186      0.1605
    160  C         10.5150   41.4650  -13.8930 C.2   186  PHE186      0.2264
    161  O         10.5340   40.2450  -13.6860 O.2   186  PHE186     -0.2867
    162  CB         9.3130   42.3050  -11.8750 C.3   186  PHE186      0.0534
    163  CG         9.4180   43.0180  -10.5670 C.ar  186  PHE186     -0.0203
    164  CD1       10.4020   42.6660   -9.6550 C.ar  186  PHE186     -0.0042
    165  CD2        8.5360   44.0370  -10.2380 C.ar  186  PHE186     -0.0042
    166  CE1       10.5060   43.3120   -8.4380 C.ar  186  PHE186     -0.0003
    167  CE2        8.6340   44.6860   -9.0180 C.ar  186  PHE186     -0.0003
    168  CZ         9.6210   44.3200   -8.1190 C.ar  186  PHE186     -0.0000
    169  N         14.4130   41.0280  -14.3780 N.3   189  ALA189     -0.1231
    170  CA        14.8760   40.2240  -13.2630 C.3   189  ALA189      0.1694
    171  C         14.4530   38.7740  -13.4600 C.2   189  ALA189      0.2592
    172  O         15.1850   37.8690  -13.0970 O.2   189  ALA189     -0.2718
    173  CB        14.3340   40.7630  -11.9450 C.3   189  ALA189      0.0304
    174  N         13.2780   38.5450  -14.0330 N.am  190  ASP190     -0.1974
    175  CA        12.8420   37.1790  -14.2610 C.3   190  ASP190      0.1709
    176  C         13.8210   36.5160  -15.2170 C.2   190  ASP190      0.2293
    177  O         14.2970   35.4010  -14.9710 O.2   190  ASP190     -0.2864
    178  CB        11.4490   37.1360  -14.8860 C.3   190  ASP190      0.1436
    179  CG        10.3490   37.3560  -13.8830 C.2   190  ASP190      0.3671
    180  OD1       10.6480   37.4700  -12.6820 O.co2 190  ASP190     -0.2456
    181  OD2        9.1790   37.4080  -14.2920 O.co2 190  ASP190     -0.2456
    182  N         17.2000   35.6550  -13.5900 N.3   193  LEU193     -0.1245
    183  CA        17.0580   34.4970  -12.7120 C.3   193  LEU193      0.1561
    184  C         17.0330   33.1940  -13.4860 C.2   193  LEU193      0.2260
    185  O         17.7520   32.2650  -13.1250 O.2   193  LEU193     -0.2867
    186  CB        15.7870   34.5840  -11.8740 C.3   193  LEU193      0.0270
    187  CG        15.9260   35.0240  -10.4210 C.3   193  LEU193      0.0019
    188  CD1       14.5380   35.2820   -9.8860 C.3   193  LEU193      0.0001
    189  CD2       16.6440   33.9700   -9.5940 C.3   193  LEU193      0.0001
@<TRIPOS>BOND
     1   176   177    2
     2   176   175    1
     3   178   175    1
     4   178   179    1
     5   169   170    1
     6   181   179   ar
     7   175   174    1
     8   174   171   am
     9   160   161    2
    10   160   159    1
    11   179   180   ar
    12   182   183    1
    13   184   185    2
    14   184   183    1
    15   171   170    1
    16   171   172    2
    17   170   173    1
    18   158   159    1
    19    26    25    2
    20   159   162    1
    21   183   186    1
    22    23    22    2
    23    27    25   am
    24    25    24    1
    25   162   163    1
    26   186   187    1
    27    22    21    1
    28    24    21    1
    29    21    20    1
    30   163   165   ar
    31   163   164   ar
    32   187   188    1
    33   187   189    1
    34   165   167   ar
    35   153   152    2
    36   164   166   ar
    37   157   155   am
    38   152   151    1
    39   167   168   ar
    40   151   154    1
    41   151   150    1
    42   155   154    1
    43   155   156    2
    44    18    17    2
    45   166   168   ar
    46   114   112    1
    47    17    16    1
    48    14    13    2
    49    54    53    2
    50    16    19    1
    51    16    15    1
    52   112   113    1
    53   112   109    1
    54    13    15   am
    55    13    12    1
    56    53    52    1
    57    52    55    1
    58    52    51    1
    59   109   108    1
    60   109   110    1
    61   118   117    2
    62   138   136   ar
    63    12    11    1
    64    55    56    1
    65    56    57    1
    66    58    57    2
    67   125   126    2
    68   125   124    1
    69    10     9    2
    70   115   110   am
    71   115   116    1
    72   110   111    2
    73   135   136    1
    74   135   134    1
    75   136   137   ar
    76    78    77    1
    77    78    79    1
    78    57    59   am
    79   117   116    1
    80   117   123   am
    81   124   123    1
    82   124   127    1
    83    11     9   am
    84   130   131    1
    85     9     8    1
    86     1     2    1
    87   116   119    1
    88   123   129    1
    89   119   120    1
    90   134   131    1
    91    34    33    2
    92    79    81   am
    93    79    80    2
    94   131   132    1
    95   127   128    1
    96     4     3    2
    97     3     2    1
    98     3     7   am
    99     2     5    1
   100    49    48   ar
   101    81    82    1
   102     8     7    1
   103   122   120    1
   104    46    45    2
   105   129   128    1
   106   120   121    1
   107    33    32    1
   108    33    35   am
   109    32    29    1
   110    84    83    2
   111    48    50   ar
   112    48    47    1
   113   132   133    2
   114     5     6    1
   115    45    44    1
   116   148   147    1
   117    28    29    1
   118    82    83    1
   119    82    85    1
   120    47    44    1
   121    29    30    1
   122    86    85    1
   123    86    87    1
   124    86    88    1
   125   145   144    1
   126   145   146    1
   127    44    43    1
   128   147   146    2
   129   147   149    1
   130   144   143    1
   131   105   104    1
   132   105   106    1
   133    43    38   am
   134    30    31    2
   135    30    36   am
   136   143   140    1
   137    89    90    1
   138   104    99   am
   139    36    37    1
   140   103   101    1
   141    90    91    1
   142   106   107    2
   143   101   102    1
   144   101    98    1
   145    38    37    1
   146    38    39    2
   147   142   141    2
   148   141   140    1
   149    99    98    1
   150    99   100    2
   151   140   139    1
   152    37    40    1
   153    98    97    1
   154    91    93   am
   155    91    92    2
   156    61    60    1
   157    61    62    1
   158    42    40    1
   159    97    95   am
   160    93    94    1
   161    40    41    1
   162    95    94    1
   163    95    96    2
   164    64    62   am
   165    64    65    1
   166    62    63    2
   167    73    74    1
   168    73    71   am
   169    74    75    1
   170    69    70    1
   171    69    66   am
   172    70    71    1
   173    71    72    2
   174    68    65    1
   175    65    66    1
   176    66    67    2
   177    75    76    2
