@<TRIPOS>MOLECULE
tmp/1w5cD08.pdb
 173 165 0 0 0
SMALL
GASTEIGER

@<TRIPOS>ATOM
      1  N         -0.0350   67.8630   36.8360 N.3    37  LEU37      -0.1245
      2  CA         1.0740   67.4190   37.6620 C.3    37  LEU37       0.1561
      3  C          1.0370   68.2440   38.9400 C.2    37  LEU37       0.2260
      4  O          0.7130   67.7410   40.0090 O.2    37  LEU37      -0.2867
      5  CB         2.4240   67.6320   36.9770 C.3    37  LEU37       0.0270
      6  CG         3.6460   67.1740   37.7830 C.3    37  LEU37       0.0019
      7  CD1        4.8970   67.3770   36.9860 C.3    37  LEU37       0.0001
      8  CD2        3.7630   67.9310   39.0750 C.3    37  LEU37       0.0001
      9  N          1.5550   66.6050   42.7050 N.3    41  ALA41      -0.1245
     10  CA         2.8770   66.7730   43.3300 C.3    41  ALA41       0.1562
     11  C          2.8650   67.5720   44.6350 C.2    41  ALA41       0.2260
     12  O          3.1870   67.0560   45.7010 O.2    41  ALA41      -0.2867
     13  CB         3.8270   67.4410   42.3570 C.3    41  ALA41       0.0290
     14  N          0.3690   66.4540   47.0510 N.3    44  ALA44      -0.1231
     15  CA         0.8710   65.2310   47.6510 C.3    44  ALA44       0.1694
     16  C          2.1690   65.3830   48.4370 C.2    44  ALA44       0.2591
     17  O          2.4530   64.5620   49.2730 O.2    44  ALA44      -0.2718
     18  CB         1.0360   64.1740   46.5850 C.3    44  ALA44       0.0304
     19  N          2.9660   66.4070   48.1700 N.am   45  LEU45      -0.1980
     20  CA         4.1980   66.5750   48.9190 C.3    45  LEU45       0.1596
     21  C          3.7690   67.1310   50.2500 C.2    45  LEU45       0.2287
     22  O          4.2980   66.7870   51.2990 O.2    45  LEU45      -0.2864
     23  CB         5.1040   67.5780   48.2350 C.3    45  LEU45       0.0297
     24  CG         6.5940   67.5920   48.5790 C.3    45  LEU45       0.0022
     25  CD1        7.2460   68.6230   47.6710 C.3    45  LEU45       0.0001
     26  CD2        6.8520   67.9260   50.0180 C.3    45  LEU45       0.0001
     27  N          2.2310   64.7280   53.0800 N.3    48  TRP48      -0.1241
     28  CA         3.2350   64.0560   53.8890 C.3    48  TRP48       0.1605
     29  C          3.7860   64.9320   55.0040 C.2    48  TRP48       0.2264
     30  O          3.9280   64.4840   56.1480 O.2    48  TRP48      -0.2867
     31  CB         4.3950   63.5650   53.0230 C.3    48  TRP48       0.0550
     32  CG         5.5090   62.9600   53.8380 C.ar   48  TRP48       0.0003
     33  CD1        5.4880   61.7690   54.5120 C.ar   48  TRP48       0.0946
     34  CD2        6.7730   63.5650   54.1420 C.ar   48  TRP48       0.0152
     35  NE1        6.6530   61.6010   55.2180 N.ar   48  TRP48      -0.2442
     36  CE2        7.4580   62.6870   55.0090 C.ar   48  TRP48       0.0810
     37  CE3        7.3940   64.7700   53.7670 C.ar   48  TRP48       0.0012
     38  CZ2        8.7250   62.9760   55.5030 C.ar   48  TRP48       0.0191
     39  CZ3        8.6510   65.0540   54.2580 C.ar   48  TRP48       0.0001
     40  CH2        9.3040   64.1660   55.1170 C.ar   48  TRP48       0.0015
     41  N         -1.5350   60.7600   49.8210 N.3   114  ILE114     -0.1245
     42  CA        -0.2280   60.7510   49.2150 C.3   114  ILE114      0.1561
     43  C         -0.0640   59.6810   48.1520 C.2   114  ILE114      0.2260
     44  O          0.5880   59.8980   47.1430 O.2   114  ILE114     -0.2867
     45  CB         0.8360   60.5810   50.2290 C.3   114  ILE114      0.0252
     46  CG1        0.6430   61.6210   51.3040 C.3   114  ILE114      0.0019
     47  CG2        2.1890   60.7720   49.5740 C.3   114  ILE114      0.0019
     48  CD1        1.7110   61.5990   52.3240 C.3   114  ILE114      0.0001
     49  N          0.2430   61.2870   44.4690 N.3   118  GLY118     -0.1225
     50  CA         1.5760   61.1230   43.9320 C.3   118  GLY118      0.1811
     51  C          1.5210   60.2220   42.7090 C.2   118  GLY118      0.2280
     52  O          2.2690   60.4030   41.7490 O.2   118  GLY118     -0.2866
     53  N          0.6920   62.3150   40.1940 N.3   121  GLY121     -0.1210
     54  CA         1.7810   63.2480   40.0100 C.3   121  GLY121      0.1956
     55  C          2.8910   62.5940   39.2050 C.2   121  GLY121      0.2611
     56  O          3.5210   63.2150   38.3630 O.2   121  GLY121     -0.2717
     57  N          3.1310   61.3190   39.4550 N.am  122  LEU122     -0.1979
     58  CA         4.1780   60.6170   38.7550 C.3   122  LEU122      0.1596
     59  C          3.7660   60.4210   37.3220 C.2   122  LEU122      0.2287
     60  O          4.5930   60.3340   36.4280 O.2   122  LEU122     -0.2864
     61  CB         4.4480   59.2880   39.4520 C.3   122  LEU122      0.0297
     62  CG         5.1310   59.5190   40.7940 C.3   122  LEU122      0.0022
     63  CD1        5.3760   58.2510   41.5210 C.3   122  LEU122      0.0001
     64  CD2        6.4200   60.1950   40.5090 C.3   122  LEU122      0.0001
     65  N          4.4840   64.0630   35.8200 N.3   125  PHE125     -0.1241
     66  CA         5.8710   64.3460   35.5230 C.3   125  PHE125      0.1605
     67  C          6.3770   63.6130   34.2840 C.2   125  PHE125      0.2264
     68  O          7.1600   64.1680   33.5170 O.2   125  PHE125     -0.2867
     69  CB         6.7110   64.0190   36.7440 C.3   125  PHE125      0.0534
     70  CG         8.1640   64.3010   36.5800 C.ar  125  PHE125     -0.0203
     71  CD1        8.9970   63.3730   35.9780 C.ar  125  PHE125     -0.0042
     72  CD2        8.7210   65.4580   37.0960 C.ar  125  PHE125     -0.0042
     73  CE1       10.3670   63.5840   35.9010 C.ar  125  PHE125     -0.0003
     74  CE2       10.0940   65.6750   37.0210 C.ar  125  PHE125     -0.0003
     75  CZ        10.9130   64.7320   36.4240 C.ar  125  PHE125     -0.0000
     76  N         14.4910   59.9880   27.9650 N.3   142  ASN142     -0.1240
     77  CA        14.5500   60.3130   29.3610 C.3   142  ASN142      0.1653
     78  C         13.3460   59.7410   30.0170 C.2   142  ASN142      0.2266
     79  O         13.4140   59.4180   31.1800 O.2   142  ASN142     -0.2867
     80  CB        14.6150   61.8050   29.6090 C.3   142  ASN142      0.1155
     81  CG        14.6480   62.1260   31.0790 C.2   142  ASN142      0.2627
     82  OD1       13.6180   62.4420   31.6700 O.2   142  ASN142     -0.2716
     83  ND2       15.8270   62.0200   31.6920 N.am  142  ASN142     -0.0877
     84  N         13.7290   55.8720   30.9020 N.3   145  ALA145     -0.1231
     85  CA        14.4240   55.7150   32.1420 C.3   145  ALA145      0.1694
     86  C         13.4230   55.9300   33.2550 C.2   145  ALA145      0.2592
     87  O         13.4010   55.1530   34.1940 O.2   145  ALA145     -0.2718
     88  CB        15.5380   56.7040   32.2420 C.3   145  ALA145      0.0304
     89  N         12.5740   56.9570   33.1420 N.am  146  PHE146     -0.1976
     90  CA        11.5980   57.2440   34.1980 C.3   146  PHE146      0.1639
     91  C         10.4990   56.2120   34.3210 C.2   146  PHE146      0.2290
     92  O          9.8930   56.0830   35.3760 O.2   146  PHE146     -0.2864
     93  CB        10.9420   58.6060   34.0110 C.3   146  PHE146      0.0560
     94  CG        10.2800   59.1220   35.2480 C.ar  146  PHE146     -0.0200
     95  CD1       11.0450   59.5530   36.3250 C.ar  146  PHE146     -0.0042
     96  CD2        8.8960   59.1520   35.3510 C.ar  146  PHE146     -0.0042
     97  CE1       10.4400   60.0060   37.4850 C.ar  146  PHE146     -0.0003
     98  CE2        8.2730   59.6020   36.5070 C.ar  146  PHE146     -0.0003
     99  CZ         9.0420   60.0290   37.5760 C.ar  146  PHE146     -0.0000
    100  N         10.9460   53.2830   34.5650 N.3   148  ALA148     -0.1231
    101  CA        11.5230   52.3810   35.5600 C.3   148  ALA148      0.1679
    102  C         11.0760   52.7420   36.9670 C.2   148  ALA148      0.2434
    103  O         10.3440   51.9940   37.6100 O.2   148  ALA148     -0.2733
    104  CB        13.0340   52.4050   35.4790 C.3   148  ALA148      0.0304
    105  N         11.5010   53.9030   37.4720 N.am  149  PRO149     -0.2729
    106  CA        11.0680   54.2410   38.8210 C.3   149  PRO149      0.1401
    107  C          9.5640   54.1390   39.0240 C.2   149  PRO149      0.2269
    108  O          9.1130   53.5970   40.0130 O.2   149  PRO149     -0.2865
    109  CB        11.5760   55.6570   38.9910 C.3   149  PRO149      0.0296
    110  CG        12.7770   55.6630   38.1730 C.3   149  PRO149      0.0237
    111  CD        12.3580   54.9630   36.9310 C.3   149  PRO149      0.0939
    112  N          7.6140   52.1650   41.8640 N.3   153  PHE153     -0.1241
    113  CA         6.6060   52.7840   42.7000 C.3   153  PHE153      0.1605
    114  C          5.2000   52.2200   42.6250 C.2   153  PHE153      0.2264
    115  O          4.4470   52.3700   43.5730 O.2   153  PHE153     -0.2867
    116  CB         6.5220   54.2840   42.4340 C.3   153  PHE153      0.0534
    117  CG         5.3920   54.9560   43.1770 C.ar  153  PHE153     -0.0203
    118  CD1        4.1140   55.0540   42.6160 C.ar  153  PHE153     -0.0042
    119  CD2        5.5910   55.4380   44.4690 C.ar  153  PHE153     -0.0042
    120  CE1        3.0620   55.6200   43.3340 C.ar  153  PHE153     -0.0003
    121  CE2        4.5340   56.0020   45.1960 C.ar  153  PHE153     -0.0003
    122  CZ         3.2760   56.0920   44.6290 C.ar  153  PHE153     -0.0000
    123  N          3.5230   50.3760   46.1440 N.3   157  PHE157     -0.1241
    124  CA         2.5530   51.2040   46.8000 C.3   157  PHE157      0.1605
    125  C          1.1590   50.9110   46.4120 C.2   157  PHE157      0.2264
    126  O          0.2710   51.0750   47.2180 O.2   157  PHE157     -0.2867
    127  CB         2.9180   52.6430   46.5970 C.3   157  PHE157      0.0534
    128  CG         4.2400   52.9910   47.2090 C.ar  157  PHE157     -0.0203
    129  CD1        5.4270   52.7280   46.5450 C.ar  157  PHE157     -0.0042
    130  CD2        4.3050   53.5250   48.4850 C.ar  157  PHE157     -0.0042
    131  CE1        6.6640   52.9920   47.1490 C.ar  157  PHE157     -0.0003
    132  CE2        5.5340   53.7900   49.0880 C.ar  157  PHE157     -0.0003
    133  CZ         6.7140   53.5180   48.4080 C.ar  157  PHE157     -0.0000
    134  N          5.4410   55.6190   54.2190 N.3   173  PHE173     -0.1241
    135  CA         5.9540   56.9210   53.8420 C.3   173  PHE173      0.1605
    136  C          6.7270   57.4400   55.0190 C.2   173  PHE173      0.2264
    137  O          6.5750   58.6050   55.3720 O.2   173  PHE173     -0.2867
    138  CB         4.8080   57.8960   53.5610 C.3   173  PHE173      0.0534
    139  CG         4.1800   57.7060   52.2330 C.ar  173  PHE173     -0.0203
    140  CD1        4.8320   58.1410   51.1040 C.ar  173  PHE173     -0.0042
    141  CD2        2.9680   57.0410   52.0980 C.ar  173  PHE173     -0.0042
    142  CE1        4.2980   57.9150   49.8620 C.ar  173  PHE173     -0.0003
    143  CE2        2.4260   56.8110   50.8570 C.ar  173  PHE173     -0.0003
    144  CZ         3.0900   57.2460   49.7370 C.ar  173  PHE173     -0.0000
    145  N         20.9260   48.5890   40.3880 N.3   204  VAL204     -0.1245
    146  CA        21.1210   49.8060   41.1430 C.3   204  VAL204      0.1561
    147  C         22.5640   49.9500   41.5700 C.2   204  VAL204      0.2260
    148  O         23.2120   50.9310   41.2580 O.2   204  VAL204     -0.2867
    149  CB        20.2010   49.8280   42.3580 C.3   204  VAL204      0.0252
    150  CG1       20.5160   51.0290   43.2450 C.3   204  VAL204      0.0019
    151  CG2       18.7710   49.8920   41.8920 C.3   204  VAL204      0.0019
    152  N         20.0600   50.7120   35.2640 N.3   275  PRO275     -0.2102
    153  CA        19.0390   51.0460   36.2620 C.3   275  PRO275      0.1504
    154  C         17.6030   50.8110   35.8430 C.2   275  PRO275      0.2575
    155  O         16.8340   50.1900   36.5670 O.2   275  PRO275     -0.2718
    156  CB        19.2940   52.5050   36.5260 C.3   275  PRO275      0.0282
    157  CG        20.7310   52.6020   36.3900 C.3   275  PRO275      0.0208
    158  CD        21.0250   51.8140   35.1560 C.3   275  PRO275      0.0893
    159  N         17.2340   51.3440   34.6900 N.am  276  VAL276     -0.1980
    160  CA        15.8840   51.1900   34.1770 C.3   276  VAL276      0.1595
    161  C         15.4980   49.7210   34.2640 C.2   276  VAL276      0.2287
    162  O         14.5350   49.3460   34.9300 O.2   276  VAL276     -0.2864
    163  CB        15.8140   51.6650   32.7020 C.3   276  VAL276      0.0276
    164  CG1       14.4240   51.4690   32.1470 C.3   276  VAL276      0.0022
    165  CG2       16.2160   53.1300   32.6100 C.3   276  VAL276      0.0022
    166  N         15.2260   47.8300   37.8360 N.3   279  LEU279     -0.1245
    167  CA        14.0470   48.1740   38.6120 C.3   279  LEU279      0.1561
    168  C         12.8330   47.4650   38.0390 C.2   279  LEU279      0.2260
    169  O         11.9050   47.1380   38.7700 O.2   279  LEU279     -0.2867
    170  CB        13.7720   49.6700   38.5540 C.3   279  LEU279      0.0270
    171  CG        14.7190   50.7380   39.0630 C.3   279  LEU279      0.0019
    172  CD1       13.9480   52.0470   39.0630 C.3   279  LEU279      0.0001
    173  CD2       15.1810   50.4320   40.4410 C.3   279  LEU279      0.0001
@<TRIPOS>BOND
     1    76    77    1
     2    77    80    1
     3    77    78    1
     4    80    81    1
     5    78    79    2
     6    84    85    1
     7    81    82    2
     8    81    83   am
     9    85    88    1
    10    85    86    1
    11   164   163    1
    12   165   163    1
    13   163   160    1
    14    89    86   am
    15    89    90    1
    16    86    87    2
    17    68    67    2
    18    93    90    1
    19    93    94    1
    20   160   161    1
    21   160   159    1
    22    90    91    1
    23   161   162    2
    24    67    66    1
    25    91    92    2
    26   100   101    1
    27   159   154   am
    28   158   152    1
    29   158   157    1
    30    94    96   ar
    31    94    95   ar
    32   152   153    1
    33    96    98   ar
    34   104   101    1
    35    66    65    1
    36    66    69    1
    37   101   102    1
    38   154   153    1
    39   154   155    2
    40    73    71   ar
    41    73    75   ar
    42    71    70   ar
    43   153   156    1
    44    95    97   ar
    45   157   156    1
    46    75    74   ar
    47    60    59    2
    48    98    99   ar
    49    70    69    1
    50    70    72   ar
    51     1     2    1
    52   111   105    1
    53   111   110    1
    54   102   105   am
    55   102   103    2
    56     5     2    1
    57     5     6    1
    58     7     6    1
    59    74    72   ar
    60    59    58    1
    61   105   106    1
    62    97    99   ar
    63     2     3    1
    64     6     8    1
    65   166   167    1
    66   168   167    1
    67   168   169    2
    68   110   109    1
    69    56    55    2
    70   170   167    1
    71   170   171    1
    72    58    61    1
    73    58    57    1
    74   106   109    1
    75   106   107    1
    76     3     4    2
    77   107   108    2
    78   172   171    1
    79   171   173    1
    80    55    57   am
    81    55    54    1
    82    61    62    1
    83    54    53    1
    84   145   146    1
    85    64    62    1
    86    62    63    1
    87   146   147    1
    88   146   149    1
    89   148   147    2
    90    52    51    2
    91   112   113    1
    92   151   149    1
    93    13    10    1
    94   149   150    1
    95   116   113    1
    96   116   117    1
    97   118   117   ar
    98   118   120   ar
    99   114   113    1
   100   114   115    2
   101     9    10    1
   102    51    50    1
   103   117   119   ar
   104    10    11    1
   105   120   122   ar
   106    50    49    1
   107   119   121   ar
   108   122   121   ar
   109    11    12    2
   110   123   124    1
   111   125   124    1
   112   125   126    2
   113   129   131   ar
   114   129   128   ar
   115    18    15    1
   116   127   124    1
   117   127   128    1
   118    14    15    1
   119    44    43    2
   120   131   133   ar
   121   128   130   ar
   122    15    16    1
   123    25    24    1
   124    43    42    1
   125    19    16   am
   126    19    20    1
   127    23    24    1
   128    23    20    1
   129   133   132   ar
   130    16    17    2
   131   130   132   ar
   132    24    26    1
   133    20    21    1
   134    42    41    1
   135    42    45    1
   136    47    45    1
   137   144   142   ar
   138   144   143   ar
   139   142   140   ar
   140    45    46    1
   141    21    22    2
   142   143   141   ar
   143   140   139   ar
   144    46    48    1
   145   141   139   ar
   146   139   138    1
   147    31    32    1
   148    31    28    1
   149    27    28    1
   150   138   135    1
   151    37    34   ar
   152    37    39   ar
   153    32    34   ar
   154    32    33   ar
   155   135   134    1
   156   135   136    1
   157    28    29    1
   158    34    36   ar
   159    39    40   ar
   160    33    35   ar
   161    29    30    2
   162    36    35   ar
   163    36    38   ar
   164   136   137    2
   165    40    38   ar
