@<TRIPOS>MOLECULE
tmp/1w5cB05.pdb
 108 104 0 0 0
SMALL
GASTEIGER

@<TRIPOS>ATOM
      1  N         -0.0960   40.6790    7.8330 N.3    18  ILE18      -0.1245
      2  CA        -1.2430   39.8190    8.1130 C.3    18  ILE18       0.1561
      3  C         -0.7930   38.3750    8.1840 C.2    18  ILE18       0.2260
      4  O         -1.3820   37.5510    8.8920 O.2    18  ILE18      -0.2867
      5  CB        -2.3250   40.0020    7.0520 C.3    18  ILE18       0.0252
      6  CG1       -3.0340   41.3300    7.3000 C.3    18  ILE18       0.0019
      7  CG2       -3.3300   38.8820    7.1140 C.3    18  ILE18       0.0019
      8  CD1       -3.8880   41.7640    6.1390 C.3    18  ILE18       0.0001
      9  N         -1.4690   36.1680   10.9640 N.3    22  LEU22      -0.1245
     10  CA        -2.2060   34.9340   10.7460 C.3    22  LEU22       0.1561
     11  C         -1.4560   33.7980   11.4570 C.2    22  LEU22       0.2260
     12  O         -2.0500   32.9340   12.0830 O.2    22  LEU22      -0.2867
     13  CB        -2.3430   34.6520    9.2410 C.3    22  LEU22       0.0270
     14  CG        -3.7100   34.1130    8.8120 C.3    22  LEU22       0.0019
     15  CD1       -4.7750   35.1280    9.1850 C.3    22  LEU22       0.0001
     16  CD2       -3.7320   33.8180    7.3190 C.3    22  LEU22       0.0001
     17  N         -5.5950   25.5320    9.9860 N.3   104  LEU104     -0.1231
     18  CA        -6.1160   26.2610    8.8470 C.3   104  LEU104      0.1693
     19  C         -5.4480   27.6040    8.9000 C.2   104  LEU104      0.2591
     20  O         -4.9150   28.0820    7.9050 O.2   104  LEU104     -0.2718
     21  CB        -7.6350   26.4220    8.9520 C.3   104  LEU104      0.0284
     22  CG        -8.4350   25.1280    8.8170 C.3   104  LEU104      0.0019
     23  CD1       -9.8890   25.3500    9.0680 C.3   104  LEU104      0.0001
     24  CD2       -8.2100   24.5850    7.4320 C.3   104  LEU104      0.0001
     25  N         -5.4560   28.2130   10.0730 N.am  105  LEU105     -0.1980
     26  CA        -4.8280   29.5000   10.1870 C.3   105  LEU105      0.1596
     27  C         -3.4140   29.4120    9.6210 C.2   105  LEU105      0.2287
     28  O         -3.0730   30.1210    8.6870 O.2   105  LEU105     -0.2864
     29  CB        -4.8220   29.9400   11.6380 C.3   105  LEU105      0.0297
     30  CG        -6.2310   30.1460   12.1660 C.3   105  LEU105      0.0022
     31  CD1       -6.2660   30.0400   13.6860 C.3   105  LEU105      0.0001
     32  CD2       -6.7080   31.4890   11.6930 C.3   105  LEU105      0.0001
     33  N         -3.2730   29.2030    6.0620 N.3   108  ALA108     -0.1245
     34  CA        -3.7130   30.4900    5.5730 C.3   108  ALA108      0.1562
     35  C         -2.5450   31.4380    5.7010 C.2   108  ALA108      0.2260
     36  O         -2.1760   32.0920    4.7440 O.2   108  ALA108     -0.2867
     37  CB        -4.8750   30.9870    6.3750 C.3   108  ALA108      0.0290
     38  N         -0.3440   30.9380    2.3780 N.3   111  TRP111     -0.1227
     39  CA        -0.5560   31.5040    1.0680 C.3   111  TRP111      0.1737
     40  C         -0.7870   33.0400    1.1960 C.2   111  TRP111      0.2595
     41  O         -0.8320   33.7340    0.1940 O.2   111  TRP111     -0.2718
     42  CB        -1.6250   30.6940    0.2760 C.3   111  TRP111      0.0564
     43  CG        -1.3360   29.1980    0.2430 C.ar  111  TRP111      0.0003
     44  CD1       -2.1260   28.1760    0.6800 C.ar  111  TRP111      0.0946
     45  CD2       -0.1280   28.5880   -0.2120 C.ar  111  TRP111      0.0152
     46  NE1       -1.4810   26.9810    0.5400 N.ar  111  TRP111     -0.2442
     47  CE2       -0.2430   27.1880    0.0010 C.ar  111  TRP111      0.0810
     48  CE3        1.0660   29.0920   -0.7660 C.ar  111  TRP111      0.0012
     49  CZ2        0.7890   26.2950   -0.3160 C.ar  111  TRP111      0.0191
     50  CZ3        2.0880   28.1990   -1.0790 C.ar  111  TRP111      0.0001
     51  CH2        1.9410   26.8160   -0.8500 C.ar  111  TRP111      0.0015
     52  N         -0.9430   33.5560    2.4130 N.am  112  HIS112     -0.1975
     53  CA        -1.1580   34.9950    2.5980 C.3   112  HIS112      0.1656
     54  C          0.1620   35.6690    2.7660 C.2   112  HIS112      0.2291
     55  O          0.2080   36.8710    2.9830 O.2   112  HIS112     -0.2864
     56  CB        -2.0000   35.3180    3.8440 C.3   112  HIS112      0.0771
     57  CG        -3.2320   36.1170    3.5470 C.ar  112  HIS112      0.0820
     58  ND1       -3.2380   37.1450    2.6300 N.ar  112  HIS112     -0.2267
     59  CD2       -4.5090   35.9990    3.9940 C.ar  112  HIS112      0.1154
     60  CE1       -4.4660   37.6170    2.5160 C.ar  112  HIS112      0.1986
     61  NE2       -5.2580   36.9380    3.3310 N.ar  112  HIS112     -0.2212
     62  N          1.7390   35.6340   -1.1710 N.3   115  TYR115     -0.1241
     63  CA         1.0310   36.6200   -1.9770 C.3   115  TYR115      0.1605
     64  C          0.7770   37.8510   -1.1440 C.2   115  TYR115      0.2264
     65  O          0.0050   37.7690   -0.2080 O.2   115  TYR115     -0.2867
     66  CB        -0.3410   36.0950   -2.4230 C.3   115  TYR115      0.0534
     67  CG        -0.3200   34.8870   -3.3230 C.ar  115  TYR115     -0.0201
     68  CD1        0.7770   34.6250   -4.1370 C.ar  115  TYR115     -0.0009
     69  CD2       -1.4180   34.0390   -3.4100 C.ar  115  TYR115     -0.0009
     70  CE1        0.7890   33.5680   -5.0100 C.ar  115  TYR115      0.0417
     71  CE2       -1.4170   32.9710   -4.2920 C.ar  115  TYR115      0.0417
     72  CZ        -0.3020   32.7430   -5.0940 C.ar  115  TYR115      0.1957
     73  OH        -0.2620   31.6970   -6.0000 O.3   115  TYR115     -0.2866
     74  N         -0.7320   41.3330   -2.5560 N.3   117  ASP117     -0.1239
     75  CA        -2.0850   41.0080   -2.9460 C.3   117  ASP117      0.1674
     76  C         -2.8080   42.3010   -3.2720 C.2   117  ASP117      0.2266
     77  O         -2.6870   43.2390   -2.4530 O.2   117  ASP117     -0.2867
     78  CB        -2.8340   40.4570   -1.7060 C.3   117  ASP117      0.1410
     79  CG        -4.2790   40.1070   -1.9060 C.2   117  ASP117      0.3668
     80  OD1       -4.7740   39.8940   -3.0470 O.co2 117  ASP117     -0.2456
     81  OD2       -4.9880   39.9430   -0.9010 O.co2 117  ASP117     -0.2456
     82  N         -4.9450   44.7930   -3.3060 N.3   119  GLU119     -0.1231
     83  CA        -6.0870   45.2830   -2.5740 C.3   119  GLU119      0.1699
     84  C         -5.3430   46.4660   -1.6720 C.2   119  GLU119      0.2592
     85  O         -5.3330   47.6490   -1.9920 O.2   119  GLU119     -0.2718
     86  CB        -6.6140   44.2670   -1.6080 C.3   119  GLU119      0.0402
     87  CG        -7.9040   44.5990   -0.8400 C.3   119  GLU119      0.1161
     88  CD        -8.9910   45.2380   -1.6540 C.2   119  GLU119      0.3649
     89  OE1       -8.8970   46.3580   -2.1480 O.co2 119  GLU119     -0.2457
     90  OE2       -9.9880   44.4920   -1.7850 O.co2 119  GLU119     -0.2457
     91  N         -4.7140   46.0740   -0.5800 N.am  120  LEU120     -0.1980
     92  CA        -3.9670   46.9910    0.2320 C.3   120  LEU120      0.1596
     93  C         -3.4710   48.2360   -0.2580 C.2   120  LEU120      0.2287
     94  O         -2.5030   48.9020    0.1210 O.2   120  LEU120     -0.2864
     95  CB        -3.2970   46.4070    1.4770 C.3   120  LEU120      0.0297
     96  CG        -4.2740   46.0290    2.5960 C.3   120  LEU120      0.0022
     97  CD1       -5.1420   47.1830    3.0280 C.3   120  LEU120      0.0001
     98  CD2       -5.1260   44.8160    2.2760 C.3   120  LEU120      0.0001
     99  N        -13.9760   47.0350   12.4330 N.3   140  HIS140     -0.1241
    100  CA       -13.6650   45.9680   13.3510 C.3   140  HIS140      0.1621
    101  C        -14.6060   46.0510   14.5290 C.2   140  HIS140      0.2264
    102  O        -15.2900   45.0740   14.8820 O.2   140  HIS140     -0.2867
    103  CB       -12.2280   46.0660   13.8430 C.3   140  HIS140      0.0745
    104  CG       -11.2220   45.5810   12.8530 C.ar  140  HIS140      0.0817
    105  ND1       -9.8930   45.4160   13.1660 N.ar  140  HIS140     -0.2268
    106  CD2      -11.3480   45.2540   11.5450 C.ar  140  HIS140      0.1154
    107  CE1       -9.2410   45.0140   12.0900 C.ar  140  HIS140      0.1986
    108  NE2      -10.1000   44.9070   11.0910 N.ar  140  HIS140     -0.2212
@<TRIPOS>BOND
     1    73    72    1
     2    72    70   ar
     3    72    71   ar
     4    70    68   ar
     5    71    69   ar
     6    68    67   ar
     7    69    67   ar
     8    67    66    1
     9    82    83    1
    10    76    75    1
    11    76    77    2
    12    80    79   ar
    13    75    74    1
    14    75    78    1
    15    83    84    1
    16    83    86    1
    17    66    63    1
    18    89    88   ar
    19    85    84    2
    20    63    62    1
    21    63    64    1
    22    79    78    1
    23    79    81   ar
    24    90    88   ar
    25    84    91   am
    26    88    87    1
    27    86    87    1
    28    64    65    2
    29    50    51   ar
    30    50    48   ar
    31    51    49   ar
    32    48    45   ar
    33    91    92    1
    34    49    47   ar
    35    93    94    2
    36    93    92    1
    37    45    47   ar
    38    45    43   ar
    39    47    46   ar
    40    41    40    2
    41    92    95    1
    42    43    42    1
    43    43    44   ar
    44    42    39    1
    45    46    44   ar
    46    39    40    1
    47    39    38    1
    48    40    52   am
    49    95    96    1
    50    98    96    1
    51    52    53    1
    52    60    58   ar
    53    60    61   ar
    54    96    97    1
    55    53    54    1
    56    53    56    1
    57    58    57   ar
    58    54    55    2
    59    61    59   ar
    60    57    56    1
    61    57    59   ar
    62    36    35    2
    63    34    35    1
    64    34    33    1
    65    34    37    1
    66     8     6    1
    67     5     7    1
    68     5     6    1
    69     5     2    1
    70    16    14    1
    71    24    22    1
    72     1     2    1
    73    20    19    2
    74     2     3    1
    75     3     4    2
    76    28    27    2
    77    14    15    1
    78    14    13    1
    79    22    21    1
    80    22    23    1
    81    18    19    1
    82    18    21    1
    83    18    17    1
    84    19    25   am
    85    13    10    1
    86    27    26    1
    87    25    26    1
    88    26    29    1
    89    10     9    1
    90    10    11    1
    91   108   106   ar
    92   108   107   ar
    93    11    12    2
    94   106   104   ar
    95    29    30    1
    96    32    30    1
    97   107   105   ar
    98    30    31    1
    99    99   100    1
   100   104   105   ar
   101   104   103    1
   102   100   103    1
   103   100   101    1
   104   101   102    2
