@<TRIPOS>MOLECULE
tmp/1w5cI11.pdb
 180 179 0 0 0
SMALL
GASTEIGER

@<TRIPOS>ATOM
      1  N         10.7600   -5.1810  -32.1430 N.3    13  PHE13      -0.1241
      2  CA        10.4440   -6.1120  -31.0740 C.3    13  PHE13       0.1605
      3  C         11.5530   -7.0280  -30.6230 C.2    13  PHE13       0.2264
      4  O         11.6290   -7.3490  -29.4470 O.2    13  PHE13      -0.2867
      5  CB         9.2410   -6.9560  -31.4650 C.3    13  PHE13       0.0534
      6  CG         7.9680   -6.2490  -31.2580 C.ar   13  PHE13      -0.0203
      7  CD1        7.6430   -5.7840  -29.9940 C.ar   13  PHE13      -0.0042
      8  CD2        7.1330   -5.9640  -32.3120 C.ar   13  PHE13      -0.0042
      9  CE1        6.5080   -5.0310  -29.7770 C.ar   13  PHE13      -0.0003
     10  CE2        5.9840   -5.2070  -32.1030 C.ar   13  PHE13      -0.0003
     11  CZ         5.6740   -4.7370  -30.8290 C.ar   13  PHE13      -0.0000
     12  N         13.6550  -10.6740  -30.4590 N.3    15  TRP15      -0.1227
     13  CA        13.0880  -11.9590  -30.0730 C.3    15  TRP15       0.1737
     14  C         12.5170  -11.7680  -28.6910 C.2    15  TRP15       0.2595
     15  O         12.3560  -10.6460  -28.2450 O.2    15  TRP15      -0.2718
     16  CB        14.1050  -13.1010  -30.1210 C.3    15  TRP15       0.0564
     17  CG        15.1520  -12.9630  -29.0830 C.ar   15  TRP15       0.0003
     18  CD1       16.2150  -12.1100  -29.1350 C.ar   15  TRP15       0.0946
     19  CD2       15.2540  -13.6620  -27.8480 C.ar   15  TRP15       0.0152
     20  NE1       16.9720  -12.2340  -28.0030 N.ar   15  TRP15      -0.2442
     21  CE2       16.4020  -13.1830  -27.1950 C.ar   15  TRP15       0.0810
     22  CE3       14.4810  -14.6460  -27.2230 C.ar   15  TRP15       0.0012
     23  CZ2       16.8000  -13.6560  -25.9420 C.ar   15  TRP15       0.0191
     24  CZ3       14.8750  -15.1190  -25.9750 C.ar   15  TRP15       0.0001
     25  CH2       16.0220  -14.6230  -25.3500 C.ar   15  TRP15       0.0015
     26  N         12.2050  -12.8460  -28.0230 N.am   16  TRP16      -0.1962
     27  CA        11.6090  -12.7410  -26.6930 C.3    16  TRP16       0.1771
     28  C         10.4620  -11.7310  -26.7010 C.2    16  TRP16       0.2619
     29  O          9.9810  -11.2700  -25.6800 O.2    16  TRP16      -0.2715
     30  CB        12.6630  -12.3980  -25.6590 C.3    16  TRP16       0.0590
     31  CG        13.3890  -11.0880  -25.7490 C.ar   16  TRP16       0.0006
     32  CD1       14.7220  -10.9720  -26.0220 C.ar   16  TRP16       0.0946
     33  CD2       12.9230   -9.7450  -25.5160 C.ar   16  TRP16       0.0152
     34  NE1       15.1220   -9.6600  -25.9540 N.ar   16  TRP16      -0.2442
     35  CE2       14.0400   -8.8870  -25.6270 C.ar   16  TRP16       0.0810
     36  CE3       11.6750   -9.1890  -25.1890 C.ar   16  TRP16       0.0012
     37  CZ2       13.9490   -7.5110  -25.4200 C.ar   16  TRP16       0.0191
     38  CZ3       11.5880   -7.8160  -24.9840 C.ar   16  TRP16       0.0001
     39  CH2       12.7210   -6.9980  -25.1000 C.ar   16  TRP16       0.0015
     40  N         10.0750  -11.4160  -27.8980 N.am   17  ALA17      -0.1963
     41  CA         8.9860  -10.5460  -28.2720 C.3    17  ALA17       0.1728
     42  C          8.6860  -11.0510  -29.6500 C.2    17  ALA17       0.2617
     43  O          8.2310  -10.3130  -30.5350 O.2    17  ALA17      -0.2715
     44  CB         9.3540   -9.0640  -28.3010 C.3    17  ALA17       0.0334
     45  N          8.9640  -12.3370  -29.8080 N.am   18  GLY18      -0.1940
     46  CA         8.7320  -13.0460  -31.0240 C.3    18  GLY18       0.2014
     47  C          7.2780  -13.4040  -31.0650 C.2    18  GLY18       0.2639
     48  O          6.9070  -14.4930  -31.5140 O.2    18  GLY18      -0.2714
     49  N          6.4400  -12.5160  -30.5800 N.am   19  ASN19      -0.1958
     50  CA         5.0410  -12.7960  -30.6240 C.3    19  ASN19       0.1819
     51  C          4.3580  -11.5260  -31.0570 C.2    19  ASN19       0.2621
     52  O          3.4000  -11.5630  -31.8280 O.2    19  ASN19      -0.2715
     53  CB         4.5650  -13.3170  -29.2810 C.3    19  ASN19       0.1195
     54  CG         4.9490  -14.7730  -29.0760 C.2    19  ASN19       0.2630
     55  OD1        5.1710  -15.5100  -30.0420 O.2    19  ASN19      -0.2716
     56  ND2        5.0010  -15.2070  -27.8230 N.am   19  ASN19      -0.0877
     57  N          4.8880  -10.3900  -30.6210 N.am   20  ALA20      -0.1977
     58  CA         4.3220   -9.1090  -31.0120 C.3    20  ALA20       0.1597
     59  C          4.2530   -9.1060  -32.5450 C.2    20  ALA20       0.2287
     60  O          3.3720   -8.4870  -33.1450 O.2    20  ALA20      -0.2864
     61  CB         5.2010   -8.0070  -30.5300 C.3    20  ALA20       0.0319
     62  N          1.1440   -9.8990  -33.8740 N.3    23  ILE23      -0.1245
     63  CA         0.0100   -9.0160  -33.6010 C.3    23  ILE23       0.1561
     64  C         -0.5990   -8.5250  -34.8910 C.2    23  ILE23       0.2260
     65  O         -1.8080   -8.3280  -34.9800 O.2    23  ILE23      -0.2867
     66  CB         0.3770   -7.7830  -32.7590 C.3    23  ILE23       0.0252
     67  CG1        1.3120   -6.8640  -33.5550 C.3    23  ILE23       0.0019
     68  CG2        1.0460   -8.1960  -31.4540 C.3    23  ILE23       0.0019
     69  CD1        1.6020   -5.5470  -32.8690 C.3    23  ILE23       0.0001
     70  N         -2.7000  -19.1900  -31.7420 N.3    33  HIS33      -0.1241
     71  CA        -3.8570  -19.3110  -30.8830 C.3    33  HIS33       0.1621
     72  C         -4.4540  -20.7140  -30.9640 C.2    33  HIS33       0.2264
     73  O         -4.9070  -21.2670  -29.9650 O.2    33  HIS33      -0.2867
     74  CB        -4.8820  -18.2220  -31.2350 C.3    33  HIS33       0.0745
     75  CG        -4.5950  -16.8730  -30.5550 C.ar   33  HIS33       0.0817
     76  ND1       -4.1220  -15.7610  -31.2200 N.ar   33  HIS33      -0.2268
     77  CD2       -4.7010  -16.5070  -29.2530 C.ar   33  HIS33       0.1154
     78  CE1       -3.9410  -14.7740  -30.3560 C.ar   33  HIS33       0.1986
     79  NE2       -4.2820  -15.2000  -29.1540 N.ar   33  HIS33      -0.2212
     80  N         -3.0670   -5.5880  -28.6220 N.3   249  GLU249     -0.1245
     81  CA        -2.4780   -5.5360  -27.3020 C.3   249  GLU249      0.1567
     82  C         -3.4010   -4.8190  -26.3250 C.2   249  GLU249      0.2260
     83  O         -3.5630   -5.2540  -25.1900 O.2   249  GLU249     -0.2867
     84  CB        -1.0990   -4.8950  -27.3730 C.3   249  GLU249      0.0388
     85  CG        -0.9140   -3.6340  -26.6140 C.3   249  GLU249      0.1160
     86  CD         0.5520   -3.3580  -26.4710 C.2   249  GLU249      0.3649
     87  OE1        1.1840   -3.9910  -25.5940 O.co2 249  GLU249     -0.2457
     88  OE2        1.0790   -2.5340  -27.2550 O.co2 249  GLU249     -0.2457
     89  N         -5.8250   -7.0490  -25.5430 N.3   252  LEU252     -0.1245
     90  CA        -5.1090   -7.9990  -24.7230 C.3   252  LEU252      0.1561
     91  C         -5.2660   -7.4980  -23.3150 C.2   252  LEU252      0.2260
     92  O         -6.0420   -8.0450  -22.5420 O.2   252  LEU252     -0.2867
     93  CB        -3.6360   -8.0460  -25.1020 C.3   252  LEU252      0.0270
     94  CG        -2.7900   -9.1420  -24.4660 C.3   252  LEU252      0.0019
     95  CD1       -3.4300  -10.4990  -24.7250 C.3   252  LEU252      0.0001
     96  CD2       -1.4000   -9.0950  -25.0470 C.3   252  LEU252      0.0001
     97  N         -6.8010   -9.1530  -20.4100 N.3   256  LEU256     -0.1245
     98  CA        -5.7320   -9.7620  -19.6380 C.3   256  LEU256      0.1561
     99  C         -6.0470   -9.6780  -18.1450 C.2   256  LEU256      0.2260
    100  O         -5.6830  -10.5700  -17.3620 O.2   256  LEU256     -0.2867
    101  CB        -4.3820   -9.0950  -19.9410 C.3   256  LEU256      0.0270
    102  CG        -3.1680  -10.0120  -19.7130 C.3   256  LEU256      0.0019
    103  CD1       -3.6250  -11.4240  -19.2790 C.3   256  LEU256      0.0001
    104  CD2       -2.3390  -10.0820  -20.9960 C.3   256  LEU256      0.0001
    105  N         -9.0580  -11.9200  -16.6220 N.3   259  LEU259     -0.1245
    106  CA        -8.7900  -13.1820  -15.9620 C.3   259  LEU259      0.1561
    107  C         -8.2450  -12.9800  -14.5490 C.2   259  LEU259      0.2260
    108  O         -8.8410  -13.4620  -13.5870 O.2   259  LEU259     -0.2867
    109  CB        -7.7990  -13.9840  -16.7860 C.3   259  LEU259      0.0270
    110  CG        -8.0920  -13.9410  -18.2730 C.3   259  LEU259      0.0019
    111  CD1       -7.0420  -14.7340  -19.0360 C.3   259  LEU259      0.0001
    112  CD2       -9.4680  -14.4880  -18.5000 C.3   259  LEU259      0.0001
    113  N         -0.0290  -12.2400  -11.1820 N.3   416  PHE416     -0.1227
    114  CA         0.8990  -11.9310  -12.2980 C.3   416  PHE416      0.1736
    115  C          0.2040  -11.3150  -13.4970 C.2   416  PHE416      0.2595
    116  O          0.6340  -10.3070  -14.0460 O.2   416  PHE416     -0.2718
    117  CB         1.6330  -13.2170  -12.7250 C.3   416  PHE416      0.0547
    118  CG         2.9900  -13.4240  -12.1380 C.ar  416  PHE416     -0.0202
    119  CD1        3.3380  -14.6600  -11.5940 C.ar  416  PHE416     -0.0042
    120  CD2        3.9360  -12.4050  -12.1310 C.ar  416  PHE416     -0.0042
    121  CE1        4.6020  -14.8870  -11.0500 C.ar  416  PHE416     -0.0003
    122  CE2        5.2150  -12.6200  -11.5860 C.ar  416  PHE416     -0.0003
    123  CZ         5.5470  -13.8630  -11.0450 C.ar  416  PHE416     -0.0000
    124  N         -0.8980  -11.9440  -13.8720 N.am  417  PHE417     -0.1976
    125  CA        -1.6970  -11.4270  -14.9690 C.3   417  PHE417      0.1639
    126  C         -2.1250   -9.9800  -14.7340 C.2   417  PHE417      0.2290
    127  O         -2.3750   -9.2300  -15.6800 O.2   417  PHE417     -0.2864
    128  CB        -2.9040  -12.3350  -15.1920 C.3   417  PHE417      0.0560
    129  CG        -2.6120  -13.5140  -16.0860 C.ar  417  PHE417     -0.0200
    130  CD1       -1.4250  -14.2260  -15.9470 C.ar  417  PHE417     -0.0042
    131  CD2       -3.5200  -13.8970  -17.0640 C.ar  417  PHE417     -0.0042
    132  CE1       -1.1400  -15.2960  -16.7670 C.ar  417  PHE417     -0.0003
    133  CE2       -3.2490  -14.9610  -17.8840 C.ar  417  PHE417     -0.0003
    134  CZ        -2.0480  -15.6700  -17.7380 C.ar  417  PHE417     -0.0000
    135  N         -0.1200   -7.9790  -13.0920 N.3   419  VAL419     -0.1231
    136  CA         1.1100   -7.2880  -13.4720 C.3   419  VAL419      0.1692
    137  C          0.8600   -7.0880  -14.9670 C.2   419  VAL419      0.2592
    138  O          0.8890   -5.9930  -15.5090 O.2   419  VAL419     -0.2718
    139  CB         2.3890   -8.1220  -13.2640 C.3   419  VAL419      0.0266
    140  CG1        3.6060   -7.4150  -13.8330 C.3   419  VAL419      0.0020
    141  CG2        2.5980   -8.4260  -11.7730 C.3   419  VAL419      0.0020
    142  N          0.6030   -8.2130  -15.6090 N.am  420  GLY420     -0.1957
    143  CA         0.3110   -8.2610  -17.0300 C.3   420  GLY420      0.1869
    144  C         -0.5780   -7.0830  -17.4130 C.2   420  GLY420      0.2309
    145  O         -0.1250   -6.1260  -18.0410 O.2   420  GLY420     -0.2863
    146  N          1.0440   -3.6800  -17.0600 N.3   423  TRP423     -0.1227
    147  CA         2.1710   -3.6540  -17.9540 C.3   423  TRP423      0.1737
    148  C          1.7550   -3.6250  -19.4110 C.2   423  TRP423      0.2595
    149  O          2.2420   -2.7980  -20.1690 O.2   423  TRP423     -0.2718
    150  CB         3.0240   -4.8570  -17.6920 C.3   423  TRP423      0.0564
    151  CG         4.3410   -4.7490  -18.3220 C.ar  423  TRP423      0.0003
    152  CD1        5.4890   -4.2010  -17.7990 C.ar  423  TRP423      0.0946
    153  CD2        4.6620   -5.1930  -19.6090 C.ar  423  TRP423      0.0152
    154  NE1        6.5110   -4.2860  -18.7030 N.ar  423  TRP423     -0.2442
    155  CE2        6.0270   -4.8950  -19.8280 C.ar  423  TRP423      0.0810
    156  CE3        3.9310   -5.8260  -20.6100 C.ar  423  TRP423      0.0012
    157  CZ2        6.6680   -5.2070  -21.0110 C.ar  423  TRP423      0.0191
    158  CZ3        4.5670   -6.1410  -21.7860 C.ar  423  TRP423      0.0001
    159  CH2        5.9260   -5.8270  -21.9810 C.ar  423  TRP423      0.0015
    160  N          0.8590   -4.5390  -19.7870 N.am  424  HIS424     -0.1975
    161  CA         0.3100   -4.6410  -21.1480 C.3   424  HIS424      0.1656
    162  C         -0.7380   -3.5680  -21.4770 C.2   424  HIS424      0.2291
    163  O         -1.1790   -3.4590  -22.6120 O.2   424  HIS424     -0.2864
    164  CB        -0.3760   -5.9990  -21.3620 C.3   424  HIS424      0.0771
    165  CG         0.4170   -6.9700  -22.1840 C.ar  424  HIS424      0.0820
    166  ND1        1.1890   -6.5750  -23.2540 N.ar  424  HIS424     -0.2267
    167  CD2        0.5560   -8.3170  -22.0930 C.ar  424  HIS424      0.1154
    168  CE1        1.7750   -7.6350  -23.7820 C.ar  424  HIS424      0.1986
    169  NE2        1.4080   -8.7040  -23.0950 N.ar  424  HIS424     -0.2212
    170  N          1.2470    0.1870  -22.0570 N.3   427  ARG427     -0.1245
    171  CA         1.9860    0.2220  -23.3020 C.3   427  ARG427      0.1563
    172  C          0.9860    0.5190  -24.3950 C.2   427  ARG427      0.2260
    173  O          1.2090    1.3710  -25.2460 O.2   427  ARG427     -0.2867
    174  CB         2.6270   -1.1280  -23.5870 C.3   427  ARG427      0.0307
    175  CG         3.4910   -1.1230  -24.8100 C.3   427  ARG427      0.0489
    176  CD         4.0230   -2.4990  -25.0840 C.3   427  ARG427      0.2205
    177  NE         4.9970   -2.4660  -26.1660 N.pl3 427  ARG427     -0.0865
    178  CZ         4.7260   -2.0340  -27.3880 C.cat 427  ARG427      0.5346
    179  NH1        3.5030   -1.6000  -27.6950 N.pl3 427  ARG427      0.1354
    180  NH2        5.6870   -2.0130  -28.2940 N.pl3 427  ARG427      0.1354
@<TRIPOS>BOND
     1    65    64    2
     2    64    63    1
     3    62    63    1
     4    63    66    1
     5    67    69    1
     6    67    66    1
     7    60    59    2
     8    66    68    1
     9    59    58    1
    10     8    10   ar
    11     8     6   ar
    12     1     2    1
    13    10    11   ar
    14    52    51    2
    15    70    71    1
    16    48    47    2
    17     5     6    1
    18     5     2    1
    19     6     7   ar
    20    74    71    1
    21    74    75    1
    22    76    75   ar
    23    76    78   ar
    24     2     3    1
    25    47    46    1
    26    47    49   am
    27    51    50    1
    28    51    57   am
    29    46    45    1
    30    58    57    1
    31    58    61    1
    32    72    71    1
    33    72    73    2
    34    11     9   ar
    35    50    49    1
    36    50    53    1
    37     3     4    2
    38    75    77   ar
    39    43    42    2
    40    12    13    1
    41    78    79   ar
    42    16    13    1
    43    16    17    1
    44    13    14    1
    45    55    54    2
    46     7     9   ar
    47    45    42   am
    48    42    41    1
    49    53    54    1
    50    77    79   ar
    51    18    17   ar
    52    18    20   ar
    53    17    19   ar
    54    54    56   am
    55    14    15    2
    56    14    26   am
    57    80    81    1
    58    44    41    1
    59   180   178    1
    60    41    40    1
    61    26    27    1
    62    20    21   ar
    63    40    28   am
    64    19    22   ar
    65    19    21   ar
    66   179   178    1
    67   178   177    2
    68    84    81    1
    69    84    85    1
    70    81    82    1
    71    88    86   ar
    72    22    24   ar
    73    21    23   ar
    74    28    27    1
    75    28    29    2
    76    27    30    1
    77    85    86    1
    78    86    87   ar
    79    82    83    2
    80   177   176    1
    81    32    34   ar
    82    32    31   ar
    83    24    25   ar
    84    34    35   ar
    85    23    25   ar
    86    31    30    1
    87    31    33   ar
    88    35    33   ar
    89    35    37   ar
    90    89    90    1
    91    33    36   ar
    92    37    39   ar
    93   173   172    2
    94    36    38   ar
    95    93    90    1
    96    93    94    1
    97    39    38   ar
    98   176   175    1
    99    96    94    1
   100   175   174    1
   101    95    94    1
   102    90    91    1
   103   172   171    1
   104   168   166   ar
   105   168   169   ar
   106   174   171    1
   107    91    92    2
   108   171   170    1
   109   166   165   ar
   110   169   167   ar
   111   163   162    2
   112   165   167   ar
   113   165   164    1
   114   159   158   ar
   115   159   157   ar
   116   158   156   ar
   117   162   161    1
   118   164   161    1
   119   161   160    1
   120   157   155   ar
   121   104   102    1
   122   156   153   ar
   123    97    98    1
   124   149   148    2
   125   101   102    1
   126   101    98    1
   127   155   153   ar
   128   155   154   ar
   129   160   148   am
   130   102   103    1
   131    98    99    1
   132   153   151   ar
   133   148   147    1
   134   111   110    1
   135   154   152   ar
   136   112   110    1
   137   151   152   ar
   138   151   150    1
   139   110   109    1
   140    99   100    2
   141   145   144    2
   142   147   150    1
   143   147   146    1
   144   133   134   ar
   145   133   131   ar
   146   134   132   ar
   147   144   143    1
   148   131   129   ar
   149   143   142    1
   150   109   106    1
   151   132   130   ar
   152   105   106    1
   153   129   130   ar
   154   129   128    1
   155   106   107    1
   156   127   126    2
   157   142   137   am
   158   138   137    2
   159   128   125    1
   160   125   126    1
   161   125   124    1
   162   137   136    1
   163   107   108    2
   164   116   115    2
   165   124   115   am
   166   140   139    1
   167   115   114    1
   168   136   139    1
   169   136   135    1
   170   139   141    1
   171   117   114    1
   172   117   118    1
   173   114   113    1
   174   118   120   ar
   175   118   119   ar
   176   120   122   ar
   177   119   121   ar
   178   122   123   ar
   179   121   123   ar
