@<TRIPOS>MOLECULE
tmp/1w5cD00.pdb
 133 129 0 0 0
SMALL
GASTEIGER

@<TRIPOS>ATOM
      1  N          2.5120   68.8440   44.5380 N.3    42  TYR42      -0.1227
      2  CA         2.4530   69.7230   45.6960 C.3    42  TYR42       0.1736
      3  C          1.4570   69.1320   46.6570 C.2    42  TYR42       0.2595
      4  O          1.7940   68.7540   47.7550 O.2    42  TYR42      -0.2718
      5  CB         1.9800   71.1120   45.2570 C.3    42  TYR42       0.0548
      6  CG         1.8760   72.1490   46.3530 C.ar   42  TYR42      -0.0200
      7  CD1        3.0160   72.7740   46.8660 C.ar   42  TYR42      -0.0009
      8  CD2        0.6400   72.5260   46.8500 C.ar   42  TYR42      -0.0009
      9  CE1        2.9250   73.7460   47.8330 C.ar   42  TYR42       0.0417
     10  CE2        0.5370   73.4940   47.8220 C.ar   42  TYR42       0.0417
     11  CZ         1.6860   74.1040   48.3100 C.ar   42  TYR42       0.1957
     12  OH         1.5920   75.0790   49.2750 O.3    42  TYR42      -0.2866
     13  N          0.2190   69.0520   46.2090 N.am   43  LEU43      -0.1980
     14  CA        -0.8580   68.5210   47.0040 C.3    43  LEU43       0.1596
     15  C         -0.3870   67.2870   47.7460 C.2    43  LEU43       0.2287
     16  O         -0.6840   67.0840   48.9190 O.2    43  LEU43      -0.2864
     17  CB        -2.0060   68.1570   46.0850 C.3    43  LEU43       0.0297
     18  CG        -3.3300   67.9030   46.7670 C.3    43  LEU43       0.0022
     19  CD1       -3.8230   69.1630   47.3440 C.3    43  LEU43       0.0001
     20  CD2       -4.3090   67.3520   45.7710 C.3    43  LEU43       0.0001
     21  N          2.9660   66.4070   48.1700 N.3    45  LEU45      -0.1231
     22  CA         4.1980   66.5750   48.9190 C.3    45  LEU45       0.1693
     23  C          3.7690   67.1310   50.2500 C.2    45  LEU45       0.2593
     24  O          4.2980   66.7870   51.2990 O.2    45  LEU45      -0.2718
     25  CB         5.1040   67.5780   48.2350 C.3    45  LEU45       0.0284
     26  CG         6.5940   67.5920   48.5790 C.3    45  LEU45       0.0019
     27  CD1        7.2460   68.6230   47.6710 C.3    45  LEU45       0.0001
     28  CD2        6.8520   67.9260   50.0180 C.3    45  LEU45       0.0001
     29  N          2.7890   68.0150   50.1890 N.am   46  GLY46      -0.1942
     30  CA         2.2770   68.6270   51.3970 C.3    46  GLY46       0.2014
     31  C          1.7530   67.5410   52.3000 C.2    46  GLY46       0.2639
     32  O          2.3300   67.2770   53.3540 O.2    46  GLY46      -0.2714
     33  N          0.6670   66.9030   51.8780 N.am   47  GLY47      -0.1954
     34  CA         0.0990   65.8370   52.6730 C.3    47  GLY47       0.1869
     35  C          1.0920   65.1620   53.6110 C.2    47  GLY47       0.2309
     36  O          0.8350   65.0500   54.8090 O.2    47  GLY47      -0.2863
     37  N          4.1050   66.1780   54.6730 N.3    49  LEU49      -0.1231
     38  CA         4.6520   67.1040   55.6620 C.3    49  LEU49       0.1693
     39  C          3.6950   67.3080   56.8290 C.2    49  LEU49       0.2592
     40  O          4.1070   67.3440   57.9930 O.2    49  LEU49      -0.2718
     41  CB         4.9430   68.4270   54.9840 C.3    49  LEU49       0.0284
     42  CG         5.9360   68.2710   53.8360 C.3    49  LEU49       0.0019
     43  CD1        5.6100   69.2130   52.7010 C.3    49  LEU49       0.0001
     44  CD2        7.3330   68.5220   54.3830 C.3    49  LEU49       0.0001
     45  N          2.4140   67.4310   56.4830 N.am   50  THR50      -0.1953
     46  CA         1.3200   67.6130   57.4340 C.3    50  THR50       0.1897
     47  C          1.3310   66.4990   58.4710 C.2    50  THR50       0.2313
     48  O          1.4470   66.7630   59.6680 O.2    50  THR50      -0.2863
     49  CB        -0.0310   67.5850   56.7200 C.3    50  THR50       0.1794
     50  OG1       -0.1120   68.6830   55.8070 O.3    50  THR50      -0.2208
     51  CG2       -1.1490   67.6830   57.7140 C.3    50  THR50       0.0378
     52  N          4.4890   66.2970   60.7990 N.3    53  THR53      -0.1218
     53  CA         4.5270   67.1070   61.9960 C.3    53  THR53       0.1862
     54  C          3.2010   67.2480   62.6930 C.2    53  THR53       0.2287
     55  O          3.1850   67.5370   63.8720 O.2    53  THR53      -0.2866
     56  CB         5.0190   68.5130   61.6970 C.3    53  THR53       0.1770
     57  OG1        4.0430   69.1760   60.9120 O.3    53  THR53      -0.2211
     58  CG2        6.2970   68.4910   60.9100 C.3    53  THR53       0.0375
     59  N          5.9860   65.0630   64.5700 N.3    67  TYR67      -0.1241
     60  CA         6.8750   65.8910   65.3930 C.3    67  TYR67       0.1605
     61  C          6.1080   66.2950   66.6510 C.2    67  TYR67       0.2264
     62  O          6.6460   66.2670   67.7760 O.2    67  TYR67      -0.2867
     63  CB         7.3030   67.1670   64.6350 C.3    67  TYR67       0.0534
     64  CG         8.1930   66.9620   63.4290 C.ar   67  TYR67      -0.0201
     65  CD1        7.7500   66.2390   62.3490 C.ar   67  TYR67      -0.0009
     66  CD2        9.4640   67.5320   63.3620 C.ar   67  TYR67      -0.0009
     67  CE1        8.5180   66.0850   61.2460 C.ar   67  TYR67       0.0417
     68  CE2       10.2570   67.3870   62.2440 C.ar   67  TYR67       0.0417
     69  CZ         9.7650   66.6540   61.1850 C.ar   67  TYR67       0.1957
     70  OH        10.5200   66.4810   60.0430 O.3    67  TYR67      -0.2866
     71  N         12.3350   63.4510   62.3910 N.3    73  PHE73      -0.1241
     72  CA        12.6610   63.0970   61.0080 C.3    73  PHE73       0.1605
     73  C         12.6180   61.5980   60.7400 C.2    73  PHE73       0.2264
     74  O         11.7330   61.0890   60.0430 O.2    73  PHE73      -0.2867
     75  CB        14.0500   63.5970   60.6340 C.3    73  PHE73       0.0534
     76  CG        14.3970   63.3690   59.1930 C.ar   73  PHE73      -0.0203
     77  CD1       14.0280   64.2860   58.2340 C.ar   73  PHE73      -0.0042
     78  CD2       15.0850   62.2390   58.7880 C.ar   73  PHE73      -0.0042
     79  CE1       14.3410   64.0870   56.8740 C.ar   73  PHE73      -0.0003
     80  CE2       15.3980   62.0370   57.4270 C.ar   73  PHE73      -0.0003
     81  CZ        15.0230   62.9670   56.4770 C.ar   73  PHE73      -0.0000
     82  N        -12.2020   61.3200   51.5260 N.3    92  LEU92      -0.1245
     83  CA       -12.6800   62.1410   52.6350 C.3    92  LEU92       0.1561
     84  C        -14.2150   62.1030   52.7720 C.2    92  LEU92       0.2260
     85  O        -14.7790   62.8270   53.5900 O.2    92  LEU92      -0.2867
     86  CB       -12.2030   63.5740   52.4130 C.3    92  LEU92       0.0270
     87  CG       -12.6560   64.7050   53.3050 C.3    92  LEU92       0.0019
     88  CD1      -12.3340   64.3800   54.7300 C.3    92  LEU92       0.0001
     89  CD2      -11.9670   65.9760   52.8680 C.3    92  LEU92       0.0001
     90  N        -12.9670   65.8510   59.5290 N.3   101  PHE101     -0.1241
     91  CA       -11.9230   65.8520   58.5470 C.3   101  PHE101      0.1605
     92  C        -10.8230   65.2750   59.3610 C.2   101  PHE101      0.2264
     93  O        -10.0070   64.4640   58.9370 O.2   101  PHE101     -0.2867
     94  CB       -11.4730   67.2650   58.1590 C.3   101  PHE101      0.0534
     95  CG       -10.0190   67.4310   57.8580 C.ar  101  PHE101     -0.0203
     96  CD1       -9.5810   67.1570   56.5860 C.ar  101  PHE101     -0.0042
     97  CD2       -9.0970   67.8460   58.8060 C.ar  101  PHE101     -0.0042
     98  CE1       -8.2600   67.3290   56.2460 C.ar  101  PHE101     -0.0003
     99  CE2       -7.7590   67.9950   58.4790 C.ar  101  PHE101     -0.0003
    100  CZ        -7.3400   67.7540   57.1940 C.ar  101  PHE101     -0.0000
    101  N        -10.9160   61.8780   59.3510 N.3   104  TRP104     -0.1241
    102  CA       -10.3700   61.3680   58.1160 C.3   104  TRP104      0.1605
    103  C         -8.8910   61.1910   58.4610 C.2   104  TRP104      0.2264
    104  O         -8.3080   60.1390   58.2280 O.2   104  TRP104     -0.2867
    105  CB       -10.5090   62.3710   56.9760 C.3   104  TRP104      0.0550
    106  CG       -10.1030   61.8100   55.6460 C.ar  104  TRP104      0.0003
    107  CD1      -10.6460   60.7340   55.0090 C.ar  104  TRP104      0.0946
    108  CD2       -9.1290   62.3480   54.7620 C.ar  104  TRP104      0.0152
    109  NE1      -10.0800   60.5740   53.7820 N.ar  104  TRP104     -0.2442
    110  CE2       -9.1420   61.5530   53.6020 C.ar  104  TRP104      0.0810
    111  CE3       -8.2410   63.4330   54.8340 C.ar  104  TRP104      0.0012
    112  CZ2       -8.3040   61.8070   52.5180 C.ar  104  TRP104      0.0191
    113  CZ3       -7.4060   63.6860   53.7570 C.ar  104  TRP104      0.0001
    114  CH2       -7.4430   62.8780   52.6140 C.ar  104  TRP104      0.0015
    115  N         -4.7380   60.6910   54.8900 N.3   110  LEU110     -0.1245
    116  CA        -3.4990   61.2730   54.4290 C.3   110  LEU110      0.1561
    117  C         -2.6370   60.2900   53.6610 C.2   110  LEU110      0.2260
    118  O         -1.7240   60.6930   52.9440 O.2   110  LEU110     -0.2867
    119  CB        -2.7400   61.8670   55.6010 C.3   110  LEU110      0.0270
    120  CG        -3.2310   63.2680   55.9390 C.3   110  LEU110      0.0019
    121  CD1       -2.6010   63.7360   57.2090 C.3   110  LEU110      0.0001
    122  CD2       -2.8760   64.2150   54.8110 C.3   110  LEU110      0.0001
    123  N         -4.1540   59.6540   50.1410 N.3   113  PHE113     -0.1241
    124  CA        -3.9330   60.9960   49.6750 C.3   113  PHE113      0.1605
    125  C         -2.5800   60.9930   49.0360 C.2   113  PHE113      0.2264
    126  O         -2.4740   61.1720   47.8240 O.2   113  PHE113     -0.2867
    127  CB        -3.9720   62.0070   50.7980 C.3   113  PHE113      0.0534
    128  CG        -4.0680   63.4230   50.3090 C.ar  113  PHE113     -0.0203
    129  CD1       -2.9240   64.2440   50.2270 C.ar  113  PHE113     -0.0042
    130  CD2       -5.3060   63.9490   49.9350 C.ar  113  PHE113     -0.0042
    131  CE1       -3.0150   65.5680   49.7860 C.ar  113  PHE113     -0.0003
    132  CE2       -5.4130   65.2710   49.4920 C.ar  113  PHE113     -0.0003
    133  CZ        -4.2660   66.0810   49.4200 C.ar  113  PHE113     -0.0000
@<TRIPOS>BOND
     1     1     2    1
     2     5     2    1
     3     5     6    1
     4     2     3    1
     5    20    18    1
     6    17    18    1
     7    17    14    1
     8    13     3   am
     9    13    14    1
    10     6     8   ar
    11     6     7   ar
    12     3     4    2
    13    18    19    1
    14     8    10   ar
    15     7     9   ar
    16    14    15    1
    17    27    26    1
    18    15    16    2
    19    10    11   ar
    20   126   125    2
    21     9    11   ar
    22    21    22    1
    23    25    26    1
    24    25    22    1
    25    11    12    1
    26    26    28    1
    27    22    23    1
    28   125   124    1
    29   133   132   ar
    30   133   131   ar
    31   132   130   ar
    32   124   123    1
    33   124   127    1
    34   131   129   ar
    35   130   128   ar
    36    29    23   am
    37    29    30    1
    38   129   128   ar
    39    23    24    2
    40   128   127    1
    41    30    31    1
    42    82    83    1
    43    33    31   am
    44    33    34    1
    45    31    32    2
    46    86    83    1
    47    86    87    1
    48   112   114   ar
    49   112   110   ar
    50   114   113   ar
    51    83    84    1
    52    34    35    1
    53    43    42    1
    54    84    85    2
    55    89    87    1
    56   118   117    2
    57    87    88    1
    58   110   109   ar
    59   110   108   ar
    60    35    36    2
    61   117   116    1
    62   113   111   ar
    63   109   107   ar
    64    42    44    1
    65    42    41    1
    66   116   115    1
    67   116   119    1
    68    37    38    1
    69   108   111   ar
    70   108   106   ar
    71   122   120    1
    72    41    38    1
    73   107   106   ar
    74   119   120    1
    75   106   105    1
    76    38    39    1
    77    50    49    1
    78   120   121    1
    79    98    96   ar
    80    98   100   ar
    81    81    79   ar
    82    81    80   ar
    83    45    39   am
    84    45    46    1
    85    96    95   ar
    86    49    46    1
    87    49    51    1
    88    39    40    2
    89    79    77   ar
    90   105   102    1
    91   100    99   ar
    92    80    78   ar
    93    46    47    1
    94    95    94    1
    95    95    97   ar
    96   102   103    1
    97   102   101    1
    98    94    91    1
    99   104   103    2
   100    77    76   ar
   101    47    48    2
   102    99    97   ar
   103    91    92    1
   104    91    90    1
   105    78    76   ar
   106    93    92    2
   107    76    75    1
   108    70    69    1
   109    74    73    2
   110    75    72    1
   111    73    72    1
   112    52    53    1
   113    58    56    1
   114    57    56    1
   115    72    71    1
   116    69    67   ar
   117    69    68   ar
   118    67    65   ar
   119    56    53    1
   120    53    54    1
   121    68    66   ar
   122    65    64   ar
   123    54    55    2
   124    66    64   ar
   125    64    63    1
   126    59    60    1
   127    63    60    1
   128    60    61    1
   129    61    62    2
