@<TRIPOS>MOLECULE
tmp/1w5cB14.pdb
 128 124 0 0 0
SMALL
GASTEIGER

@<TRIPOS>ATOM
      1  N         -8.9660   54.5820   10.5810 N.3   134  PRO134     -0.2116
      2  CA       -10.3360   54.9970   10.9030 C.3   134  PRO134      0.1372
      3  C        -11.4870   54.1580   10.3580 C.2   134  PRO134      0.2244
      4  O        -12.5400   54.0680   10.9880 O.2   134  PRO134     -0.2868
      5  CB       -10.3610   56.4420   10.4320 C.3   134  PRO134      0.0268
      6  CG        -9.0320   56.9180   10.8950 C.3   134  PRO134      0.0207
      7  CD        -8.1130   55.7780   10.4230 C.3   134  PRO134      0.0892
      8  N        -10.7410   50.6190   12.5070 N.3   137  PHE137     -0.1241
      9  CA       -11.2170   50.7490   13.8720 C.3   137  PHE137      0.1605
     10  C        -12.6870   51.1270   13.9120 C.2   137  PHE137      0.2264
     11  O        -13.2260   51.4990   14.9740 O.2   137  PHE137     -0.2867
     12  CB       -10.4410   51.7830   14.6780 C.3   137  PHE137      0.0534
     13  CG       -11.0270   52.0110   16.0310 C.ar  137  PHE137     -0.0203
     14  CD1      -11.3590   50.9260   16.8440 C.ar  137  PHE137     -0.0042
     15  CD2      -11.3090   53.3050   16.4800 C.ar  137  PHE137     -0.0042
     16  CE1      -11.9730   51.1200   18.1010 C.ar  137  PHE137     -0.0003
     17  CE2      -11.9260   53.5280   17.7440 C.ar  137  PHE137     -0.0003
     18  CZ       -12.2620   52.4300   18.5640 C.ar  137  PHE137     -0.0000
     19  N        -14.6340   47.2330   15.1350 N.3   141  LEU141     -0.1245
     20  CA       -15.4790   47.4690   16.2860 C.3   141  LEU141      0.1561
     21  C        -16.9010   46.9970   15.9790 C.2   141  LEU141      0.2260
     22  O        -17.6040   46.5440   16.8790 O.2   141  LEU141     -0.2867
     23  CB       -15.4390   48.9480   16.6490 C.3   141  LEU141      0.0270
     24  CG       -16.2260   49.3990   17.8640 C.3   141  LEU141      0.0019
     25  CD1      -16.0570   48.4280   18.9770 C.3   141  LEU141      0.0001
     26  CD2      -15.7520   50.7770   18.2520 C.3   141  LEU141      0.0001
     27  N        -24.1220   48.7140   21.9240 N.3   206  VAL206     -0.1245
     28  CA       -23.3820   49.9390   22.0070 C.3   206  VAL206      0.1561
     29  C        -22.2250   49.7550   21.0710 C.2   206  VAL206      0.2260
     30  O        -21.7400   50.7030   20.4750 O.2   206  VAL206     -0.2867
     31  CB       -22.8600   50.1770   23.4050 C.3   206  VAL206      0.0252
     32  CG1      -21.8810   51.3270   23.4060 C.3   206  VAL206      0.0019
     33  CG2      -24.0120   50.4860   24.3290 C.3   206  VAL206      0.0019
     34  N        -23.5840   50.3400   17.2590 N.3   209  ILE209     -0.1231
     35  CA       -23.7930   51.7600   17.0210 C.3   209  ILE209      0.1692
     36  C        -22.4670   52.4840   16.8390 C.2   209  ILE209      0.2591
     37  O        -22.2410   53.1560   15.8390 O.2   209  ILE209     -0.2718
     38  CB       -24.5430   52.4070   18.1980 C.3   209  ILE209      0.0266
     39  CG1      -26.0460   52.2210   18.0190 C.3   209  ILE209      0.0019
     40  CG2      -24.2030   53.8760   18.2980 C.3   209  ILE209      0.0020
     41  CD1      -26.8660   52.8450   19.1310 C.3   209  ILE209      0.0001
     42  N        -21.5940   52.3240   17.8220 N.am  210  ALA210     -0.1980
     43  CA       -20.2800   52.9580   17.8320 C.3   210  ALA210      0.1597
     44  C        -19.4380   52.5880   16.6370 C.2   210  ALA210      0.2287
     45  O        -18.8180   53.4410   16.0180 O.2   210  ALA210     -0.2864
     46  CB       -19.5390   52.5990   19.1140 C.3   210  ALA210      0.0319
     47  N        -20.8340   53.8390   13.1800 N.3   213  PHE213     -0.1227
     48  CA       -20.5970   55.2580   13.2210 C.3   213  PHE213      0.1736
     49  C        -19.1530   55.5200   12.8550 C.2   213  PHE213      0.2595
     50  O        -18.8700   56.1500   11.8530 O.2   213  PHE213     -0.2718
     51  CB       -20.8720   55.8010   14.6110 C.3   213  PHE213      0.0547
     52  CG       -20.1330   57.0660   14.9140 C.ar  213  PHE213     -0.0202
     53  CD1      -20.5720   58.2990   14.4100 C.ar  213  PHE213     -0.0042
     54  CD2      -18.9570   57.0270   15.6500 C.ar  213  PHE213     -0.0042
     55  CE1      -19.8360   59.4820   14.6360 C.ar  213  PHE213     -0.0003
     56  CE2      -18.2150   58.1900   15.8790 C.ar  213  PHE213     -0.0003
     57  CZ       -18.6580   59.4220   15.3690 C.ar  213  PHE213     -0.0000
     58  N        -18.2390   55.0270   13.6730 N.am  214  HIS214     -0.1975
     59  CA       -16.8080   55.2170   13.4560 C.3   214  HIS214      0.1656
     60  C        -16.3700   54.8800   12.0290 C.2   214  HIS214      0.2291
     61  O        -15.3170   55.3480   11.5850 O.2   214  HIS214     -0.2864
     62  CB       -16.0020   54.3400   14.4450 C.3   214  HIS214      0.0771
     63  CG       -15.5710   55.0380   15.7070 C.ar  214  HIS214      0.0820
     64  ND1      -14.3760   55.7230   15.8090 N.ar  214  HIS214     -0.2267
     65  CD2      -16.1610   55.1310   16.9290 C.ar  214  HIS214      0.1154
     66  CE1      -14.2490   56.2060   17.0360 C.ar  214  HIS214      0.1986
     67  NE2      -15.3180   55.8630   17.7370 N.ar  214  HIS214     -0.2212
     68  N        -18.1990   58.0530    9.6860 N.3   217  VAL217     -0.1231
     69  CA       -18.0140   59.4710    9.9730 C.3   217  VAL217      0.1692
     70  C        -16.5730   59.8530   10.3080 C.2   217  VAL217      0.2592
     71  O        -16.2430   59.9870   11.4750 O.2   217  VAL217     -0.2718
     72  CB       -18.9020   59.8750   11.1670 C.3   217  VAL217      0.0266
     73  CG1      -18.7060   61.3260   11.5030 C.3   217  VAL217      0.0020
     74  CG2      -20.3640   59.5960   10.8430 C.3   217  VAL217      0.0020
     75  N        -15.7380   60.0800    9.2910 N.am  218  ARG218     -0.1966
     76  CA       -14.3030   60.4060    9.4440 C.3   218  ARG218      0.1714
     77  C        -13.7600   61.1740   10.6600 C.2   218  ARG218      0.2458
     78  O        -14.4920   61.8450   11.3880 O.2   218  ARG218     -0.2730
     79  CB       -13.7800   61.0770    8.1710 C.3   218  ARG218      0.0347
     80  CG       -13.5880   60.1410    7.0080 C.3   218  ARG218      0.0492
     81  CD       -12.5660   59.0890    7.2960 C.3   218  ARG218      0.2205
     82  NE       -12.4740   58.1120    6.2080 N.pl3 218  ARG218     -0.0865
     83  CZ       -11.5600   57.1400    6.1110 C.cat 218  ARG218      0.5346
     84  NH1      -10.6150   56.9650    7.0350 N.pl3 218  ARG218      0.1354
     85  NH2      -11.5840   56.3360    5.0620 N.pl3 218  ARG218      0.1354
     86  N        -12.4330   61.0720   10.8720 N.am  219  PRO219     -0.2716
     87  CA       -11.5840   61.6490   11.9190 C.3   219  PRO219      0.1521
     88  C        -10.9810   63.0460   11.6610 C.2   219  PRO219      0.2440
     89  O        -10.1620   63.2170   10.7670 O.2   219  PRO219     -0.2731
     90  CB       -10.4930   60.5970   12.0500 C.3   219  PRO219      0.0310
     91  CG       -10.2210   60.2960   10.6050 C.3   219  PRO219      0.0237
     92  CD       -11.6270   60.1570   10.0350 C.3   219  PRO219      0.0939
     93  N        -11.3490   64.0440   12.4790 N.am  220  PRO220     -0.2727
     94  CA       -10.8780   65.4350   12.3870 C.3   220  PRO220      0.1402
     95  C         -9.3660   65.6320   12.1930 C.2   220  PRO220      0.2269
     96  O         -8.5630   64.9620   12.8430 O.2   220  PRO220     -0.2865
     97  CB       -11.3720   66.0450   13.6940 C.3   220  PRO220      0.0296
     98  CG       -12.6730   65.3180   13.9090 C.3   220  PRO220      0.0237
     99  CD       -12.3250   63.8920   13.5710 C.3   220  PRO220      0.0939
    100  N         -7.7460   65.7370   15.3760 N.3   223  LEU223     -0.1245
    101  CA        -7.5910   64.4690   16.0630 C.3   223  LEU223      0.1561
    102  C         -6.7220   63.5670   15.2170 C.2   223  LEU223      0.2260
    103  O         -6.0690   62.6660   15.7310 O.2   223  LEU223     -0.2867
    104  CB        -8.9230   63.7750   16.2670 C.3   223  LEU223      0.0270
    105  CG        -9.8690   64.4070   17.2870 C.3   223  LEU223      0.0019
    106  CD1      -11.1870   63.6680   17.2460 C.3   223  LEU223      0.0001
    107  CD2       -9.3130   64.3470   18.6870 C.3   223  LEU223      0.0001
    108  N         -3.2780   65.0140   15.6190 N.3   226  ALA226     -0.1231
    109  CA        -2.9650   64.7850   17.0190 C.3   226  ALA226      0.1694
    110  C         -2.2140   63.4890   17.3500 C.2   226  ALA226      0.2591
    111  O         -1.1240   63.5420   17.9110 O.2   226  ALA226     -0.2718
    112  CB        -4.2570   64.8280   17.8150 C.3   226  ALA226      0.0304
    113  N         -2.8020   62.3530   17.0090 N.am  227  LEU227     -0.1980
    114  CA        -2.1710   61.0670   17.3200 C.3   227  LEU227      0.1596
    115  C         -1.3490   60.4880   16.1650 C.2   227  LEU227      0.2287
    116  O         -1.3320   59.2570   16.0000 O.2   227  LEU227     -0.2864
    117  CB        -3.2460   60.0680   17.7600 C.3   227  LEU227      0.0297
    118  CG        -3.8860   60.3160   19.1250 C.3   227  LEU227      0.0022
    119  CD1       -5.0110   59.3260   19.3180 C.3   227  LEU227      0.0001
    120  CD2       -2.8950   60.1640   20.2510 C.3   227  LEU227      0.0001
    121  N         -1.9470   59.5930   13.9040 N.3   229  MET229     -0.1245
    122  CA        -2.9450   58.7100   13.3020 C.3   229  MET229      0.1570
    123  C         -2.5620   58.4730   11.8560 C.2   229  MET229      0.2261
    124  O         -2.1920   59.4260   11.1580 O.2   229  MET229     -0.2867
    125  CB        -4.3410   59.3690   13.3260 C.3   229  MET229      0.0387
    126  CG        -5.5340   58.4980   13.7210 C.3   229  MET229      0.0595
    127  SD        -7.0530   59.4450   13.9590 S.3   229  MET229     -0.1393
    128  CE        -7.0220   59.7100   15.7300 C.3   229  MET229      0.0692
@<TRIPOS>BOND
     1    85    83    1
     2    83    82    2
     3    83    84    1
     4    82    81    1
     5    80    81    1
     6    80    79    1
     7    79    76    1
     8    75    76    1
     9    75    70   am
    10    76    77    1
    11    68    69    1
    12    69    70    1
    13    69    72    1
    14    92    91    1
    15    92    86    1
    16    70    71    2
    17     3     2    1
    18     3     4    2
    19     7     1    1
    20     7     6    1
    21     5     6    1
    22     5     2    1
    23     1     2    1
    24    91    90    1
    25    77    86   am
    26    77    78    2
    27    89    88    2
    28    74    72    1
    29    86    87    1
    30   124   123    2
    31    72    73    1
    32    61    60    2
    33    88    87    1
    34    88    93   am
    35    50    49    2
    36   123   122    1
    37    87    90    1
    38    60    59    1
    39    95    94    1
    40    95    96    2
    41    94    93    1
    42    94    97    1
    43    93    99    1
    44     8     9    1
    45    49    48    1
    46    49    58   am
    47    47    48    1
    48    48    51    1
    49   122   125    1
    50   122   121    1
    51   125   126    1
    52    59    58    1
    53    59    62    1
    54    99    98    1
    55    97    98    1
    56   126   127    1
    57     9    10    1
    58     9    12    1
    59    10    11    2
    60   127   128    1
    61    53    55   ar
    62    53    52   ar
    63    62    63    1
    64    51    52    1
    65    55    57   ar
    66    12    13    1
    67    52    54   ar
    68    19    20    1
    69   102   103    2
    70   102   101    1
    71    57    56   ar
    72   100   101    1
    73   108   109    1
    74    54    56   ar
    75    63    64   ar
    76    63    65   ar
    77    64    66   ar
    78    37    36    2
    79    21    20    1
    80    21    22    2
    81   116   115    2
    82    45    44    2
    83    13    15   ar
    84    13    14   ar
    85   101   104    1
    86   115   114    1
    87   104   105    1
    88    20    23    1
    89    15    17   ar
    90    44    43    1
    91    23    24    1
    92    36    35    1
    93    36    42   am
    94    14    16   ar
    95    65    67   ar
    96   113   114    1
    97   113   110   am
    98   109   110    1
    99   109   112    1
   100    35    34    1
   101    35    38    1
   102    66    67   ar
   103   106   105    1
   104   105   107    1
   105   114   117    1
   106   110   111    2
   107    17    18   ar
   108   117   118    1
   109    42    43    1
   110    43    46    1
   111    24    26    1
   112    24    25    1
   113    39    38    1
   114    39    41    1
   115    16    18   ar
   116    38    40    1
   117   118   119    1
   118   118   120    1
   119    30    29    2
   120    29    28    1
   121    27    28    1
   122    28    31    1
   123    31    32    1
   124    31    33    1
