@<TRIPOS>MOLECULE
tmp/1w5cI08.pdb
 116 111 0 0 0
SMALL
GASTEIGER

@<TRIPOS>ATOM
      1  N        -14.2690    6.1030  -24.6830 N.3   243  ALA243     -0.1231
      2  CA       -13.6720    5.6590  -23.4410 C.3   243  ALA243      0.1694
      3  C        -12.5430    4.6350  -23.5850 C.2   243  ALA243      0.2592
      4  O        -11.5220    4.7140  -22.9000 O.2   243  ALA243     -0.2718
      5  CB       -14.7370    5.1150  -22.5690 C.3   243  ALA243      0.0304
      6  N        -12.7050    3.6890  -24.4890 N.am  244  PHE244     -0.1962
      7  CA       -11.6990    2.6580  -24.6590 C.3   244  PHE244      0.1771
      8  C        -10.7780    2.9600  -25.8060 C.2   244  PHE244      0.2619
      9  O        -11.1480    3.7230  -26.6980 O.2   244  PHE244     -0.2715
     10  CB       -12.3800    1.3250  -24.9300 C.3   244  PHE244      0.0574
     11  CG       -13.4090    0.9650  -23.9130 C.ar  244  PHE244     -0.0200
     12  CD1      -13.1530   -0.0130  -22.9730 C.ar  244  PHE244     -0.0042
     13  CD2      -14.6140    1.6480  -23.8540 C.ar  244  PHE244     -0.0042
     14  CE1      -14.0720   -0.3020  -21.9860 C.ar  244  PHE244     -0.0003
     15  CE2      -15.5380    1.3650  -22.8680 C.ar  244  PHE244     -0.0003
     16  CZ       -15.2660    0.3860  -21.9270 C.ar  244  PHE244     -0.0000
     17  N         -9.5780    2.3740  -25.7710 N.am  245  ILE245     -0.1977
     18  CA        -8.6130    2.5270  -26.8580 C.3   245  ILE245      0.1596
     19  C         -8.7860    1.2060  -27.5540 C.2   245  ILE245      0.2287
     20  O         -9.3550    0.3050  -26.9640 O.2   245  ILE245     -0.2864
     21  CB        -7.1800    2.6550  -26.3670 C.3   245  ILE245      0.0276
     22  CG1       -6.6850    1.3250  -25.8280 C.3   245  ILE245      0.0022
     23  CG2       -7.1050    3.6920  -25.2890 C.3   245  ILE245      0.0022
     24  CD1       -5.2000    1.3610  -25.5220 C.3   245  ILE245      0.0001
     25  N         -4.5670   -6.4260  -22.9930 N.3   253  SER253     -0.1202
     26  CA        -4.6530   -5.8770  -21.6550 C.3   253  SER253      0.2020
     27  C         -6.0780   -5.9850  -21.1350 C.2   253  SER253      0.2618
     28  O         -6.3240   -6.5950  -20.0990 O.2   253  SER253     -0.2717
     29  CB        -4.2280   -4.4140  -21.6390 C.3   253  SER253      0.2103
     30  OG        -5.3230   -3.5740  -21.9460 O.3   253  SER253     -0.2182
     31  N         -7.0130   -5.4010  -21.8660 N.am  254  TYR254     -0.1975
     32  CA        -8.4250   -5.4330  -21.4850 C.3   254  TYR254      0.1639
     33  C         -8.8850   -6.8120  -21.0110 C.2   254  TYR254      0.2290
     34  O         -9.5160   -6.9440  -19.9710 O.2   254  TYR254     -0.2864
     35  CB        -9.2950   -5.0400  -22.6690 C.3   254  TYR254      0.0560
     36  CG        -9.3050   -3.5820  -23.0380 C.ar  254  TYR254     -0.0198
     37  CD1      -10.2420   -2.7270  -22.5000 C.ar  254  TYR254     -0.0009
     38  CD2       -8.4420   -3.0880  -23.9960 C.ar  254  TYR254     -0.0009
     39  CE1      -10.3300   -1.4210  -22.9210 C.ar  254  TYR254      0.0417
     40  CE2       -8.5130   -1.7880  -24.4210 C.ar  254  TYR254      0.0417
     41  CZ        -9.4610   -0.9510  -23.8900 C.ar  254  TYR254      0.1957
     42  OH        -9.5350    0.3530  -24.3460 O.3   254  TYR254     -0.2866
     43  N         -6.7270   -8.6030  -17.7570 N.3   257  GLY257     -0.1210
     44  CA        -7.0930   -8.4340  -16.3660 C.3   257  GLY257      0.1956
     45  C         -8.3980   -9.1600  -16.1550 C.2   257  GLY257      0.2611
     46  O         -8.7540   -9.5620  -15.0460 O.2   257  GLY257     -0.2717
     47  N         -9.1160   -9.3230  -17.2580 N.am  258  ALA258     -0.1979
     48  CA       -10.3950  -10.0100  -17.2590 C.3   258  ALA258      0.1597
     49  C        -10.2390  -11.3150  -16.5180 C.2   258  ALA258      0.2287
     50  O        -11.1670  -11.7610  -15.8700 O.2   258  ALA258     -0.2864
     51  CB       -10.8440  -10.2810  -18.6970 C.3   258  ALA258      0.0319
     52  N         -7.1280  -12.2660  -14.4140 N.3   260  SER260     -0.1202
     53  CA        -6.5460  -12.0780  -13.0890 C.3   260  SER260      0.2020
     54  C         -7.6720  -11.9730  -12.0580 C.2   260  SER260      0.2618
     55  O         -7.6340  -12.6520  -11.0410 O.2   260  SER260     -0.2717
     56  CB        -5.6290  -10.8320  -13.0410 C.3   260  SER260      0.2103
     57  OG        -6.3310   -9.6260  -12.7580 O.3   260  SER260     -0.2182
     58  N         -8.6900  -11.1610  -12.3410 N.am  261  MET261     -0.1979
     59  CA        -9.8030  -11.0040  -11.4140 C.3   261  MET261      0.1605
     60  C        -10.4960  -12.3330  -11.1690 C.2   261  MET261      0.2287
     61  O        -10.4250  -12.9030  -10.0870 O.2   261  MET261     -0.2864
     62  CB       -10.8060   -9.9890  -11.9510 C.3   261  MET261      0.0413
     63  CG       -12.1760  -10.0910  -11.3070 C.3   261  MET261      0.0598
     64  SD       -13.2000   -8.5940  -11.4420 S.3   261  MET261     -0.1393
     65  CE       -14.0000   -8.7950  -13.0610 C.3   261  MET261      0.0692
     66  N         -2.1940   -9.6130  -13.4660 N.3   418  LEU418     -0.1245
     67  CA        -2.5290   -8.2540  -13.1540 C.3   418  LEU418      0.1561
     68  C         -1.2970   -7.3930  -13.3970 C.2   418  LEU418      0.2260
     69  O         -1.3780   -6.2530  -13.8540 O.2   418  LEU418     -0.2867
     70  CB        -3.0110   -8.0820  -11.7330 C.3   418  LEU418      0.0270
     71  CG        -3.4520   -6.6600  -11.4350 C.3   418  LEU418      0.0019
     72  CD1       -4.6510   -6.2840  -12.2760 C.3   418  LEU418      0.0001
     73  CD2       -3.7480   -6.4990   -9.9500 C.3   418  LEU418      0.0001
     74  N         -1.8590   -7.1470  -17.0230 N.3   421  HIS421     -0.1226
     75  CA        -2.8350   -6.0950  -17.3110 C.3   421  HIS421      0.1752
     76  C         -2.1380   -4.7550  -17.4260 C.2   421  HIS421      0.2595
     77  O         -1.9630   -4.2200  -18.5210 O.2   421  HIS421     -0.2718
     78  CB        -3.8650   -6.0180  -16.1890 C.3   421  HIS421      0.0759
     79  CG        -4.7590   -4.7830  -16.2920 C.ar  421  HIS421      0.0818
     80  ND1       -5.7810   -4.6940  -17.2080 N.ar  421  HIS421     -0.2268
     81  CD2       -4.7950   -3.6300  -15.5830 C.ar  421  HIS421      0.1154
     82  CE1       -6.4120   -3.5440  -17.0570 C.ar  421  HIS421      0.1986
     83  NE2       -5.8320   -2.8790  -16.0770 N.ar  421  HIS421     -0.2212
     84  N         -1.7380   -4.2270  -16.2770 N.am  422  LEU422     -0.1980
     85  CA        -1.0700   -2.9470  -16.2090 C.3   422  LEU422      0.1596
     86  C          0.0460   -2.8330  -17.2240 C.2   422  LEU422      0.2287
     87  O          0.0020   -2.0090  -18.1490 O.2   422  LEU422     -0.2864
     88  CB        -0.5270   -2.7470  -14.8020 C.3   422  LEU422      0.0297
     89  CG        -1.6780   -2.5510  -13.8160 C.3   422  LEU422      0.0022
     90  CD1       -1.1640   -2.4480  -12.4020 C.3   422  LEU422      0.0001
     91  CD2       -2.4120   -1.2990  -14.1870 C.3   422  LEU422      0.0001
     92  N         -1.1510   -2.7790  -20.5020 N.3   425  ALA425     -0.1231
     93  CA        -2.1640   -1.7830  -20.7680 C.3   425  ALA425      0.1694
     94  C         -1.6500   -0.3600  -20.6730 C.2   425  ALA425      0.2592
     95  O         -2.3750    0.5910  -20.9790 O.2   425  ALA425     -0.2718
     96  CB        -3.2900   -1.9760  -19.8190 C.3   425  ALA425      0.0304
     97  N         -0.4110   -0.2130  -20.2110 N.am  426  GLY426     -0.1957
     98  CA         0.1980    1.1020  -20.1060 C.3   426  GLY426      0.1869
     99  C          1.0050    1.2860  -21.3700 C.2   426  GLY426      0.2309
    100  O          1.4050    2.3750  -21.7220 O.2   426  GLY426     -0.2863
    101  N         -0.1220   -0.2110  -24.3710 N.3   428  ALA428     -0.1231
    102  CA        -1.1830   -0.0260  -25.3520 C.3   428  ALA428      0.1694
    103  C         -1.6560    1.4410  -25.3010 C.2   428  ALA428      0.2591
    104  O         -2.0730    2.0280  -26.2920 O.2   428  ALA428     -0.2718
    105  CB        -2.3430   -0.9870  -25.0380 C.3   428  ALA428      0.0304
    106  N         -1.5700    2.0210  -24.1220 N.am  429  ARG429     -0.1980
    107  CA        -1.9950    3.3710  -23.9300 C.3   429  ARG429      0.1597
    108  C         -0.8940    4.3160  -24.3660 C.2   429  ARG429      0.2287
    109  O         -1.1140    5.5370  -24.4710 O.2   429  ARG429     -0.2864
    110  CB        -2.3550    3.5790  -22.4570 C.3   429  ARG429      0.0334
    111  CG        -3.8400    3.6920  -22.1980 C.3   429  ARG429      0.0492
    112  CD        -4.3910    4.8640  -22.9890 C.3   429  ARG429      0.2205
    113  NE        -5.6060    5.4780  -22.4600 N.pl3 429  ARG429     -0.0865
    114  CZ        -6.1930    5.1550  -21.3160 C.cat 429  ARG429      0.5346
    115  NH1       -5.6960    4.2090  -20.5510 N.pl3 429  ARG429      0.1354
    116  NH2       -7.2730    5.8050  -20.9150 N.pl3 429  ARG429      0.1354
@<TRIPOS>BOND
     1    19    20    2
     2    19    18    1
     3    18    21    1
     4    18    17    1
     5     9     8    2
     6    21    22    1
     7    21    23    1
     8   104   103    2
     9    22    24    1
    10     8    17   am
    11     8     7    1
    12   102   103    1
    13   102   105    1
    14   102   101    1
    15   103   106   am
    16    10     7    1
    17    10    11    1
    18     1     2    1
    19     7     6    1
    20     6     3   am
    21   109   108    2
    22    40    38   ar
    23    40    41   ar
    24   108   107    1
    25    42    41    1
    26   106   107    1
    27    38    36   ar
    28   107   110    1
    29    11    13   ar
    30    11    12   ar
    31    41    39   ar
    32    13    15   ar
    33     3     2    1
    34     3     4    2
    35     2     5    1
    36    36    35    1
    37    36    37   ar
    38    25    26    1
    39   112   113    1
    40   112   111    1
    41    12    14   ar
    42    39    37   ar
    43    15    16   ar
    44    35    32    1
    45   113   114    2
    46   110   111    1
    47    14    16   ar
    48    30    29    1
    49    31    32    1
    50    31    27   am
    51   100    99    2
    52    26    29    1
    53    26    27    1
    54    32    33    1
    55    99    98    1
    56   114   116    1
    57   114   115    1
    58    27    28    2
    59    33    34    2
    60    95    94    2
    61    93    94    1
    62    93    92    1
    63    93    96    1
    64    94    97   am
    65    97    98    1
    66    51    48    1
    67    77    76    2
    68    87    86    2
    69    43    44    1
    70    76    75    1
    71    76    84   am
    72    75    74    1
    73    75    78    1
    74    48    47    1
    75    48    49    1
    76    47    45   am
    77    86    85    1
    78    80    82   ar
    79    80    79   ar
    80    82    83   ar
    81    49    50    2
    82    44    45    1
    83    79    78    1
    84    79    81   ar
    85    84    85    1
    86    85    88    1
    87    45    46    2
    88    83    81   ar
    89    88    89    1
    90    52    53    1
    91    91    89    1
    92    69    68    2
    93    89    90    1
    94    66    67    1
    95    68    67    1
    96    67    70    1
    97    53    56    1
    98    53    54    1
    99    65    64    1
   100    56    57    1
   101    58    54   am
   102    58    59    1
   103    72    71    1
   104    54    55    2
   105    62    59    1
   106    62    63    1
   107    70    71    1
   108    64    63    1
   109    71    73    1
   110    59    60    1
   111    60    61    2
