@<TRIPOS>MOLECULE
tmp/1w5cB10.pdb
 132 125 0 0 0
SMALL
GASTEIGER

@<TRIPOS>ATOM
      1  N         -1.6310   33.7990   15.3690 N.3    25  THR25      -0.1218
      2  CA        -2.9230   33.2830   15.8240 C.3    25  THR25       0.1862
      3  C         -2.7030   31.7720   15.9300 C.2    25  THR25       0.2287
      4  O         -2.6260   31.2330   17.0300 O.2    25  THR25      -0.2866
      5  CB        -4.0910   33.5920   14.8080 C.3    25  THR25       0.1770
      6  OG1       -4.4220   34.9800   14.8720 O.3    25  THR25      -0.2211
      7  CG2       -5.3460   32.8090   15.1390 C.3    25  THR25       0.0375
      8  N         -1.4180   30.0570   19.0200 N.3    28  VAL28      -0.1231
      9  CA        -2.1430   30.0310   20.2640 C.3    28  VAL28       0.1692
     10  C         -3.1390   28.8980   20.2250 C.2    28  VAL28       0.2591
     11  O         -3.0980   28.0250   21.0650 O.2    28  VAL28      -0.2718
     12  CB        -2.8180   31.3720   20.5310 C.3    28  VAL28       0.0266
     13  CG1       -3.6010   31.3230   21.8080 C.3    28  VAL28       0.0020
     14  CG2       -1.7550   32.4340   20.6420 C.3    28  VAL28       0.0020
     15  N         -4.0190   28.8620   19.2460 N.am   29  ALA29      -0.1980
     16  CA        -4.9720   27.7700   19.2070 C.3    29  ALA29       0.1597
     17  C         -4.1930   26.4630   19.1250 C.2    29  ALA29       0.2287
     18  O         -4.6820   25.4050   19.5360 O.2    29  ALA29      -0.2864
     19  CB        -5.8670   27.9190   18.0270 C.3    29  ALA29       0.0319
     20  N         -1.3840   25.9780   20.6670 N.3    31  TRP31      -0.1227
     21  CA        -1.1830   25.8360   22.0850 C.3    31  TRP31       0.1737
     22  C         -2.5500   25.5630   22.7630 C.2    31  TRP31       0.2595
     23  O         -2.7410   24.5640   23.4290 O.2    31  TRP31      -0.2718
     24  CB        -0.5800   27.1180   22.6190 C.3    31  TRP31       0.0564
     25  CG        -0.2700   27.0480   24.0390 C.ar   31  TRP31       0.0003
     26  CD1        0.8770   26.5680   24.6020 C.ar   31  TRP31       0.0946
     27  CD2       -1.1250   27.4270   25.1220 C.ar   31  TRP31       0.0152
     28  NE1        0.7920   26.6260   25.9720 N.ar   31  TRP31      -0.2442
     29  CE2       -0.4280   27.1450   26.3190 C.ar   31  TRP31       0.0810
     30  CE3       -2.4120   27.9730   25.2010 C.ar   31  TRP31       0.0012
     31  CZ2       -0.9760   27.3920   27.5740 C.ar   31  TRP31       0.0191
     32  CZ3       -2.9530   28.2170   26.4460 C.ar   31  TRP31       0.0001
     33  CH2       -2.2380   27.9280   27.6160 C.ar   31  TRP31       0.0015
     34  N         -3.5010   26.4570   22.5640 N.am   32  ALA32      -0.1966
     35  CA        -4.8380   26.3780   23.1360 C.3    32  ALA32       0.1728
     36  C         -5.4210   25.0010   23.2250 C.2    32  ALA32       0.2616
     37  O         -5.7600   24.5470   24.2990 O.2    32  ALA32      -0.2715
     38  CB        -5.7690   27.2560   22.3470 C.3    32  ALA32       0.0334
     39  N         -5.5890   24.3460   22.0880 N.am   33  GLY33      -0.1955
     40  CA        -6.1520   23.0100   22.1160 C.3    33  GLY33       0.1869
     41  C         -5.1270   22.1060   22.7590 C.2    33  GLY33       0.2309
     42  O         -5.4340   21.2620   23.5930 O.2    33  GLY33      -0.2863
     43  N         -5.0830   21.8250   26.6330 N.3    36  ALA36      -0.1245
     44  CA        -6.2040   20.9740   26.9590 C.3    36  ALA36       0.1562
     45  C         -5.8380   19.5080   26.9510 C.2    36  ALA36       0.2260
     46  O         -6.0900   18.8060   27.9200 O.2    36  ALA36      -0.2867
     47  CB        -7.3130   21.2350   26.0070 C.3    36  ALA36       0.0290
     48  N         -5.7500   25.0160   34.9130 N.3    59  PHE59      -0.1227
     49  CA        -5.7350   26.1710   34.0420 C.3    59  PHE59       0.1736
     50  C         -6.8170   26.0640   32.9740 C.2    59  PHE59       0.2595
     51  O         -7.9850   25.9250   33.2950 O.2    59  PHE59      -0.2718
     52  CB        -4.3970   26.2950   33.3510 C.3    59  PHE59       0.0547
     53  CG        -4.0170   27.6570   32.9220 C.ar   59  PHE59      -0.0202
     54  CD1       -4.3230   28.7690   33.6700 C.ar   59  PHE59      -0.0042
     55  CD2       -3.2820   27.8160   31.7780 C.ar   59  PHE59      -0.0042
     56  CE1       -3.8910   30.0170   33.2820 C.ar   59  PHE59      -0.0003
     57  CE2       -2.8490   29.0520   31.3850 C.ar   59  PHE59      -0.0003
     58  CZ        -3.1510   30.1550   32.1390 C.ar   59  PHE59      -0.0000
     59  N         -6.4050   26.1250   31.7260 N.am   60  VAL60      -0.1980
     60  CA        -7.2950   25.9670   30.6090 C.3    60  VAL60       0.1595
     61  C         -8.6580   25.3520   30.9750 C.2    60  VAL60       0.2287
     62  O         -9.6950   25.9360   30.6790 O.2    60  VAL60      -0.2864
     63  CB        -6.5680   25.1110   29.5860 C.3    60  VAL60       0.0276
     64  CG1       -7.5310   24.5050   28.6180 C.3    60  VAL60       0.0022
     65  CG2       -5.5210   25.9500   28.8840 C.3    60  VAL60       0.0022
     66  N        -11.9580   27.3530   32.3800 N.3    63  PHE63      -0.1227
     67  CA       -12.6640   28.1000   31.3610 C.3    63  PHE63       0.1736
     68  C        -13.5780   27.1850   30.5920 C.2    63  PHE63       0.2595
     69  O        -14.7940   27.3350   30.6440 O.2    63  PHE63      -0.2718
     70  CB       -11.6450   28.7990   30.4610 C.3    63  PHE63       0.0547
     71  CG       -10.6620   29.6540   31.2280 C.ar   63  PHE63      -0.0202
     72  CD1      -11.0570   30.8510   31.8100 C.ar   63  PHE63      -0.0042
     73  CD2       -9.3730   29.2030   31.4660 C.ar   63  PHE63      -0.0042
     74  CE1      -10.1860   31.5810   32.6290 C.ar   63  PHE63      -0.0003
     75  CE2       -8.4910   29.9220   32.2810 C.ar   63  PHE63      -0.0003
     76  CZ        -8.9040   31.1140   32.8640 C.ar   63  PHE63      -0.0000
     77  N        -13.0020   26.2370   29.8780 N.am   64  MET64      -0.1979
     78  CA       -13.8120   25.2670   29.1370 C.3    64  MET64       0.1605
     79  C        -15.0180   24.8860   29.9360 C.2    64  MET64       0.2287
     80  O        -16.1060   24.7170   29.4130 O.2    64  MET64      -0.2864
     81  CB       -13.0050   23.9910   28.8430 C.3    64  MET64       0.0413
     82  CG       -12.0430   24.1320   27.6680 C.3    64  MET64       0.0598
     83  SD       -11.2050   22.5830   27.2760 S.3    64  MET64      -0.1393
     84  CE       -10.4190   22.2340   28.8440 C.3    64  MET64       0.0692
     85  N        -17.6170   28.3190   30.7640 N.3    67  LEU67      -0.1245
     86  CA       -18.4140   28.7310   29.6160 C.3    67  LEU67       0.1561
     87  C        -19.4360   27.7360   29.0770 C.2    67  LEU67       0.2260
     88  O        -20.1190   28.0400   28.0990 O.2    67  LEU67      -0.2867
     89  CB       -17.5200   29.1700   28.4770 C.3    67  LEU67       0.0270
     90  CG       -18.0800   30.4240   27.8430 C.3    67  LEU67       0.0019
     91  CD1      -18.0660   31.5360   28.8500 C.3    67  LEU67       0.0001
     92  CD2      -17.2490   30.8100   26.6740 C.3    67  LEU67       0.0001
     93  N        -18.7700   23.8700   28.9020 N.3    69  VAL69      -0.1245
     94  CA       -18.2610   22.5450   28.5800 C.3    69  VAL69       0.1561
     95  C        -17.9120   21.7020   29.8010 C.2    69  VAL69       0.2260
     96  O        -17.0250   22.0570   30.5510 O.2    69  VAL69      -0.2867
     97  CB       -17.0240   22.7140   27.6960 C.3    69  VAL69       0.0252
     98  CG1      -16.3740   21.4020   27.4300 C.3    69  VAL69       0.0019
     99  CG2      -17.4280   23.3640   26.3980 C.3    69  VAL69       0.0019
    100  N        -13.4080   20.3230   22.1080 N.3    94  VAL94      -0.1245
    101  CA       -12.9590   21.7020   22.1230 C.3    94  VAL94       0.1561
    102  C        -11.4820   21.7290   21.7980 C.2    94  VAL94       0.2260
    103  O        -11.0060   22.5830   21.0690 O.2    94  VAL94      -0.2867
    104  CB       -13.0860   22.3120   23.5000 C.3    94  VAL94       0.0252
    105  CG1      -12.6110   23.7250   23.4660 C.3    94  VAL94       0.0019
    106  CG2      -14.4980   22.2330   23.9720 C.3    94  VAL94       0.0019
    107  N         -9.6610   22.9630   18.2160 N.3    98  HIS98      -0.1241
    108  CA        -8.6210   24.0000   18.0960 C.3    98  HIS98       0.1621
    109  C         -7.4120   23.5720   17.2810 C.2    98  HIS98       0.2264
    110  O         -6.7360   24.4080   16.6860 O.2    98  HIS98      -0.2867
    111  CB        -8.0730   24.4160   19.4630 C.3    98  HIS98       0.0745
    112  CG        -8.9480   25.3620   20.2270 C.ar   98  HIS98       0.0817
    113  ND1       -9.9250   24.9330   21.0970 N.ar   98  HIS98      -0.2268
    114  CD2       -8.9580   26.7160   20.2880 C.ar   98  HIS98       0.1154
    115  CE1      -10.4950   25.9790   21.6630 C.ar   98  HIS98       0.1986
    116  NE2       -9.9290   27.0740   21.1880 N.ar   98  HIS98      -0.2212
    117  N         -8.5440   24.1630   13.5050 N.3   101  LEU101     -0.1245
    118  CA        -8.6110   25.5500   13.1410 C.3   101  LEU101      0.1561
    119  C         -7.2640   26.1990   13.3560 C.2   101  LEU101      0.2260
    120  O         -6.9300   27.1380   12.6680 O.2   101  LEU101     -0.2867
    121  CB        -9.7910   26.2210   13.8920 C.3   101  LEU101      0.0270
    122  CG       -11.0900   25.3350   13.8070 C.3   101  LEU101      0.0019
    123  CD1      -12.3990   26.0800   14.0880 C.3   101  LEU101      0.0001
    124  CD2      -11.1820   24.7410   12.4190 C.3   101  LEU101      0.0001
    125  N         -5.4560   28.2130   10.0730 N.3   105  LEU105     -0.1245
    126  CA        -4.8280   29.5000   10.1870 C.3   105  LEU105      0.1561
    127  C         -3.4140   29.4120    9.6210 C.2   105  LEU105      0.2260
    128  O         -3.0730   30.1210    8.6870 O.2   105  LEU105     -0.2867
    129  CB        -4.8220   29.9400   11.6380 C.3   105  LEU105      0.0270
    130  CG        -6.2310   30.1460   12.1660 C.3   105  LEU105      0.0019
    131  CD1       -6.2660   30.0400   13.6860 C.3   105  LEU105      0.0001
    132  CD2       -6.7080   31.4890   11.6930 C.3   105  LEU105      0.0001
@<TRIPOS>BOND
     1   128   127    2
     2   127   126    1
     3   125   126    1
     4   126   129    1
     5   129   130    1
     6   132   130    1
     7   130   131    1
     8   124   122    1
     9   120   119    2
    10   118   119    1
    11   118   117    1
    12   118   121    1
    13   122   121    1
    14   122   123    1
    15     5     6    1
    16     5     7    1
    17     5     2    1
    18     1     2    1
    19     2     3    1
    20     3     4    2
    21   110   109    2
    22   109   108    1
    23    19    16    1
    24   108   107    1
    25   108   111    1
    26     8     9    1
    27    17    16    1
    28    17    18    2
    29    16    15    1
    30    15    10   am
    31   111   112    1
    32    10     9    1
    33    10    11    2
    34   112   114   ar
    35   112   113   ar
    36     9    12    1
    37   114   116   ar
    38    12    14    1
    39    12    13    1
    40    20    21    1
    41   103   102    2
    42   113   115   ar
    43   116   115   ar
    44   102   101    1
    45    21    24    1
    46    21    22    1
    47    39    40    1
    48    39    36   am
    49   100   101    1
    50    40    41    1
    51   101   104    1
    52    38    35    1
    53    34    22   am
    54    34    35    1
    55    24    25    1
    56    41    42    2
    57    22    23    2
    58    35    36    1
    59    36    37    2
    60   105   104    1
    61   104   106    1
    62    25    26   ar
    63    25    27   ar
    64    26    28   ar
    65    27    30   ar
    66    27    29   ar
    67    30    32   ar
    68    28    29   ar
    69    47    44    1
    70    29    31   ar
    71    99    97    1
    72    32    33   ar
    73    43    44    1
    74    92    90    1
    75    45    44    1
    76    45    46    2
    77    83    82    1
    78    83    84    1
    79    98    97    1
    80    31    33   ar
    81    82    81    1
    82    97    94    1
    83    90    89    1
    84    90    91    1
    85    88    87    2
    86    89    86    1
    87    94    93    1
    88    94    95    1
    89    64    63    1
    90    81    78    1
    91    65    63    1
    92    87    86    1
    93    78    77    1
    94    78    79    1
    95    80    79    2
    96    63    60    1
    97    86    85    1
    98    95    96    2
    99    77    68   am
   100    70    71    1
   101    70    67    1
   102    68    69    2
   103    68    67    1
   104    60    61    1
   105    60    59    1
   106    62    61    2
   107    71    73   ar
   108    71    72   ar
   109    67    66    1
   110    57    55   ar
   111    57    58   ar
   112    73    75   ar
   113    59    50   am
   114    55    53   ar
   115    72    74   ar
   116    58    56   ar
   117    75    76   ar
   118    74    76   ar
   119    53    52    1
   120    53    54   ar
   121    50    51    2
   122    50    49    1
   123    56    54   ar
   124    52    49    1
   125    49    48    1
