@<TRIPOS>MOLECULE
tmp/1w5cI00.pdb
 136 131 0 0 0
SMALL
GASTEIGER

@<TRIPOS>ATOM
      1  N          7.2250  -12.5510  -44.1210 N.3     5  ASN5       -0.1225
      2  CA         8.3400  -13.0260  -43.3080 C.3     5  ASN5        0.1785
      3  C          8.9980  -11.7740  -42.7860 C.2     5  ASN5        0.2597
      4  O          8.5310  -10.6580  -43.0440 O.2     5  ASN5       -0.2718
      5  CB         9.3840  -13.8780  -44.0840 C.3     5  ASN5        0.1169
      6  CG         8.9320  -15.3290  -43.8770 C.2     5  ASN5        0.2627
      7  OD1        8.6270  -15.7670  -42.7840 O.2     5  ASN5       -0.2716
      8  ND2        8.8590  -16.2710  -44.8060 N.am    5  ASN5       -0.0877
      9  N         10.0830  -11.9950  -42.0550 N.am    6  ARG6       -0.1966
     10  CA        10.9070  -10.9950  -41.3940 C.3     6  ARG6        0.1729
     11  C         10.6410  -11.1550  -39.9010 C.2     6  ARG6        0.2616
     12  O          9.5320  -10.9770  -39.3860 O.2     6  ARG6       -0.2715
     13  CB        10.6370   -9.5610  -41.8930 C.3     6  ARG6        0.0348
     14  CG        11.2500   -9.3060  -43.2700 C.3     6  ARG6        0.0492
     15  CD        12.7760   -9.6480  -43.2960 C.3     6  ARG6        0.2205
     16  NE        13.6420   -8.6600  -42.6130 N.pl3   6  ARG6       -0.0865
     17  CZ        14.9340   -8.7710  -42.4570 C.cat   6  ARG6        0.5346
     18  NH1       15.5620   -9.9220  -42.8290 N.pl3   6  ARG6        0.1354
     19  NH2       15.6020   -7.7630  -41.8940 N.pl3   6  ARG6        0.1354
     20  N         11.6970  -11.5850  -39.2470 N.am    7  ASP7       -0.1971
     21  CA        11.7000  -11.8450  -37.8420 C.3     7  ASP7        0.1709
     22  C         12.2120  -10.5820  -37.1740 C.2     7  ASP7        0.2293
     23  O         11.5050   -9.9460  -36.3700 O.2     7  ASP7       -0.2864
     24  CB        12.6260  -13.0420  -37.5630 C.3     7  ASP7        0.1436
     25  CG        12.0800  -14.3820  -38.0310 C.2     7  ASP7        0.3671
     26  OD1       10.8880  -14.4560  -38.4080 O.co2   7  ASP7       -0.2456
     27  OD2       12.8330  -15.3530  -38.0360 O.co2   7  ASP7       -0.2456
     28  N         13.6550  -10.6740  -30.4590 N.3    15  TRP15      -0.1227
     29  CA        13.0880  -11.9590  -30.0730 C.3    15  TRP15       0.1737
     30  C         12.5170  -11.7680  -28.6910 C.2    15  TRP15       0.2595
     31  O         12.3560  -10.6460  -28.2450 O.2    15  TRP15      -0.2718
     32  CB        14.1050  -13.1010  -30.1210 C.3    15  TRP15       0.0564
     33  CG        15.1520  -12.9630  -29.0830 C.ar   15  TRP15       0.0003
     34  CD1       16.2150  -12.1100  -29.1350 C.ar   15  TRP15       0.0946
     35  CD2       15.2540  -13.6620  -27.8480 C.ar   15  TRP15       0.0152
     36  NE1       16.9720  -12.2340  -28.0030 N.ar   15  TRP15      -0.2442
     37  CE2       16.4020  -13.1830  -27.1950 C.ar   15  TRP15       0.0810
     38  CE3       14.4810  -14.6460  -27.2230 C.ar   15  TRP15       0.0012
     39  CZ2       16.8000  -13.6560  -25.9420 C.ar   15  TRP15       0.0191
     40  CZ3       14.8750  -15.1190  -25.9750 C.ar   15  TRP15       0.0001
     41  CH2       16.0220  -14.6230  -25.3500 C.ar   15  TRP15       0.0015
     42  N         12.2050  -12.8460  -28.0230 N.am   16  TRP16      -0.1976
     43  CA        11.6090  -12.7410  -26.6930 C.3    16  TRP16       0.1640
     44  C         10.4620  -11.7310  -26.7010 C.2    16  TRP16       0.2290
     45  O          9.9810  -11.2700  -25.6800 O.2    16  TRP16      -0.2864
     46  CB        12.6630  -12.3980  -25.6590 C.3    16  TRP16       0.0576
     47  CG        13.3890  -11.0880  -25.7490 C.ar   16  TRP16       0.0006
     48  CD1       14.7220  -10.9720  -26.0220 C.ar   16  TRP16       0.0946
     49  CD2       12.9230   -9.7450  -25.5160 C.ar   16  TRP16       0.0152
     50  NE1       15.1220   -9.6600  -25.9540 N.ar   16  TRP16      -0.2442
     51  CE2       14.0400   -8.8870  -25.6270 C.ar   16  TRP16       0.0810
     52  CE3       11.6750   -9.1890  -25.1890 C.ar   16  TRP16       0.0012
     53  CZ2       13.9490   -7.5110  -25.4200 C.ar   16  TRP16       0.0191
     54  CZ3       11.5880   -7.8160  -24.9840 C.ar   16  TRP16       0.0001
     55  CH2       12.7210   -6.9980  -25.1000 C.ar   16  TRP16       0.0015
     56  N          8.9640  -12.3370  -29.8080 N.3    18  GLY18      -0.1210
     57  CA         8.7320  -13.0460  -31.0240 C.3    18  GLY18       0.1956
     58  C          7.2780  -13.4040  -31.0650 C.2    18  GLY18       0.2611
     59  O          6.9070  -14.4930  -31.5140 O.2    18  GLY18      -0.2717
     60  N          6.4400  -12.5160  -30.5800 N.am   19  ASN19      -0.1974
     61  CA         5.0410  -12.7960  -30.6240 C.3    19  ASN19       0.1688
     62  C          4.3580  -11.5260  -31.0570 C.2    19  ASN19       0.2292
     63  O          3.4000  -11.5630  -31.8280 O.2    19  ASN19      -0.2864
     64  CB         4.5650  -13.3170  -29.2810 C.3    19  ASN19       0.1181
     65  CG         4.9490  -14.7730  -29.0760 C.2    19  ASN19       0.2629
     66  OD1        5.1710  -15.5100  -30.0420 O.2    19  ASN19      -0.2716
     67  ND2        5.0010  -15.2070  -27.8230 N.am   19  ASN19      -0.0877
     68  N          5.1880   -9.8200  -33.1700 N.3    21  ARG21      -0.1231
     69  CA         5.2210   -9.9100  -34.6160 C.3    21  ARG21       0.1694
     70  C          3.8670  -10.3690  -35.0610 C.2    21  ARG21       0.2591
     71  O          3.2420   -9.7100  -35.8650 O.2    21  ARG21      -0.2718
     72  CB         6.3170  -10.8770  -35.0590 C.3    21  ARG21       0.0321
     73  CG         7.6890  -10.4200  -34.5530 C.3    21  ARG21       0.0489
     74  CD         8.7840  -11.4720  -34.6500 C.3    21  ARG21       0.2205
     75  NE        10.0290  -10.9520  -34.0820 N.pl3  21  ARG21      -0.0865
     76  CZ        11.1910  -11.6050  -34.0720 C.cat  21  ARG21       0.5346
     77  NH1       11.2760  -12.8200  -34.5960 N.pl3  21  ARG21       0.1354
     78  NH2       12.2830  -11.0320  -33.5680 N.pl3  21  ARG21       0.1354
     79  N          3.3810  -11.4650  -34.5000 N.am   22  LEU22      -0.1980
     80  CA         2.0750  -11.9630  -34.8810 C.3    22  LEU22       0.1596
     81  C          0.8990  -11.0210  -34.5650 C.2    22  LEU22       0.2287
     82  O         -0.2360  -11.2960  -34.9360 O.2    22  LEU22      -0.2864
     83  CB         1.8460  -13.3080  -34.2540 C.3    22  LEU22       0.0297
     84  CG         2.5700  -14.4630  -34.8750 C.3    22  LEU22       0.0022
     85  CD1        4.0370  -14.2990  -34.9380 C.3    22  LEU22       0.0001
     86  CD2        2.1720  -15.7790  -34.1890 C.3    22  LEU22       0.0001
     87  N         -0.1130  -10.0460  -38.2370 N.3    25  LEU25      -0.1245
     88  CA        -0.4050  -11.1590  -39.1520 C.3    25  LEU25       0.1561
     89  C         -1.5450  -12.1560  -38.8670 C.2    25  LEU25       0.2260
     90  O         -1.2870  -13.3590  -38.6980 O.2    25  LEU25      -0.2867
     91  CB         0.8620  -11.9770  -39.3200 C.3    25  LEU25       0.0270
     92  CG         2.0770  -11.1450  -39.6590 C.3    25  LEU25       0.0019
     93  CD1        3.3500  -11.9720  -39.6400 C.3    25  LEU25       0.0001
     94  CD2        1.9110  -10.4850  -41.0170 C.3    25  LEU25       0.0001
     95  N         -1.1070  -16.1030  -39.1070 N.3    28  LYS28      -0.1245
     96  CA        -0.0230  -16.5670  -38.2580 C.3    28  LYS28       0.1561
     97  C         -0.5320  -16.8000  -36.8400 C.2    28  LYS28       0.2260
     98  O         -0.4090  -17.8950  -36.3010 O.2    28  LYS28      -0.2867
     99  CB         1.1250  -15.5440  -38.2870 C.3    28  LYS28       0.0271
    100  CG         1.8790  -15.4540  -39.5730 C.3    28  LYS28       0.0035
    101  CD         2.7040  -16.6980  -39.8320 C.3    28  LYS28       0.0206
    102  CE         3.8290  -16.8780  -38.8250 C.3    28  LYS28       0.1093
    103  NZ         4.7440  -17.9640  -39.2910 N.3    28  LYS28      -0.1314
    104  N         -1.1490  -19.7920  -33.8020 N.3    32  ALA32      -0.1245
    105  CA        -0.4800  -19.5560  -32.5440 C.3    32  ALA32       0.1562
    106  C         -1.5480  -19.8370  -31.5100 C.2    32  ALA32       0.2260
    107  O         -1.3610  -20.5800  -30.5540 O.2    32  ALA32      -0.2867
    108  CB         0.0640  -18.1440  -32.4220 C.3    32  ALA32       0.0290
    109  N         -2.9660  -23.8550  -31.8720 N.3    35  ALA35      -0.1231
    110  CA        -2.0380  -24.7820  -31.2100 C.3    35  ALA35       0.1694
    111  C         -2.1800  -24.6860  -29.6990 C.2    35  ALA35       0.2592
    112  O         -2.6170  -25.6340  -29.0290 O.2    35  ALA35      -0.2718
    113  CB        -0.6170  -24.4450  -31.5990 C.3    35  ALA35       0.0304
    114  N         -1.7830  -23.5310  -29.1710 N.am   36  HIS36      -0.1976
    115  CA        -1.8760  -23.2550  -27.7410 C.3    36  HIS36       0.1656
    116  C         -3.1570  -23.8820  -27.2280 C.2    36  HIS36       0.2291
    117  O         -3.1200  -24.7250  -26.3450 O.2    36  HIS36      -0.2864
    118  CB        -1.9410  -21.7540  -27.5120 C.3    36  HIS36       0.0771
    119  CG        -1.9250  -21.3660  -26.0740 C.ar   36  HIS36       0.0820
    120  ND1       -2.3930  -20.1510  -25.6260 N.ar   36  HIS36      -0.2267
    121  CD2       -1.4610  -22.0180  -24.9840 C.ar   36  HIS36       0.1154
    122  CE1       -2.2170  -20.0730  -24.3190 C.ar   36  HIS36       0.1986
    123  NE2       -1.6520  -21.1930  -23.9040 N.ar   36  HIS36      -0.2212
    124  N         -3.0030  -27.2500  -26.9330 N.3    39  LEU39      -0.1245
    125  CA        -2.0000  -27.4670  -25.9050 C.3    39  LEU39       0.1561
    126  C         -2.6380  -27.6730  -24.5330 C.2    39  LEU39       0.2260
    127  O         -2.1380  -28.4630  -23.7340 O.2    39  LEU39      -0.2867
    128  CB        -1.0240  -26.2880  -25.9020 C.3    39  LEU39       0.0270
    129  CG         0.4260  -26.4870  -25.4420 C.3    39  LEU39       0.0019
    130  CD1        1.0460  -27.7110  -26.0940 C.3    39  LEU39       0.0001
    131  CD2        1.2350  -25.2290  -25.8090 C.3    39  LEU39       0.0001
    132  N          0.8240  -21.6570  -38.8070 N.3   113  ALA113     -0.1245
    133  CA         2.1320  -21.0290  -38.6380 C.3   113  ALA113      0.1562
    134  C          3.0470  -21.4930  -39.7730 C.2   113  ALA113      0.2260
    135  O          4.1840  -21.0060  -39.9280 O.2   113  ALA113     -0.2867
    136  CB         2.7470  -21.4060  -37.2850 C.3   113  ALA113      0.0290
@<TRIPOS>BOND
     1     8     6   am
     2     1     2    1
     3     5     6    1
     4     5     2    1
     5     6     7    2
     6     2     3    1
     7    15    14    1
     8    15    16    1
     9    14    13    1
    10     4     3    2
    11    18    17    1
    12     3     9   am
    13    16    17    2
    14    17    19    1
    15     9    10    1
    16    13    10    1
    17    10    11    1
    18    94    92    1
    19   135   134    2
    20    11    12    2
    21    11    20   am
    22   101   100    1
    23   101   102    1
    24   134   133    1
    25    92    93    1
    26    92    91    1
    27   100    99    1
    28    91    88    1
    29   103   102    1
    30    20    21    1
    31    88    89    1
    32    88    87    1
    33    95    96    1
    34    89    90    2
    35   132   133    1
    36   133   136    1
    37    26    25   ar
    38    99    96    1
    39    96    97    1
    40    27    25   ar
    41    25    24    1
    42    21    24    1
    43    21    22    1
    44    22    23    2
    45    97    98    2
    46    71    70    2
    47    70    69    1
    48    70    79   am
    49    72    69    1
    50    72    73    1
    51    85    84    1
    52    82    81    2
    53    80    81    1
    54    80    79    1
    55    80    83    1
    56    84    83    1
    57    84    86    1
    58    74    73    1
    59    74    75    1
    60    69    68    1
    61    77    76    1
    62    75    76    2
    63    76    78    1
    64   104   105    1
    65   105   108    1
    66   105   106    1
    67   109   110    1
    68    63    62    2
    69   113   110    1
    70    59    58    2
    71   106   107    2
    72   110   111    1
    73    58    57    1
    74    58    60   am
    75    62    61    1
    76    57    56    1
    77    61    60    1
    78    61    64    1
    79    28    29    1
    80    32    29    1
    81    32    33    1
    82    29    30    1
    83    66    65    2
    84   111   114   am
    85   111   112    2
    86    64    65    1
    87   114   115    1
    88    34    33   ar
    89    34    36   ar
    90    33    35   ar
    91    65    67   am
    92    30    31    2
    93    30    42   am
    94    42    43    1
    95    36    37   ar
    96    35    38   ar
    97    35    37   ar
    98   115   118    1
    99   115   116    1
   100   118   119    1
   101   116   117    2
   102    38    40   ar
   103    37    39   ar
   104   124   125    1
   105    44    43    1
   106    44    45    2
   107    43    46    1
   108   130   129    1
   109   119   120   ar
   110   119   121   ar
   111    48    50   ar
   112    48    47   ar
   113    40    41   ar
   114    50    51   ar
   115    39    41   ar
   116   125   128    1
   117   125   126    1
   118   128   129    1
   119   131   129    1
   120    47    46    1
   121    47    49   ar
   122    51    49   ar
   123    51    53   ar
   124   120   122   ar
   125    49    52   ar
   126    53    55   ar
   127    52    54   ar
   128    55    54   ar
   129   121   123   ar
   130   126   127    2
   131   122   123   ar
