@<TRIPOS>MOLECULE
tmp/1w5cD09.pdb
 155 155 0 0 0
SMALL
GASTEIGER

@<TRIPOS>ATOM
      1  N         -0.5870   70.9560   34.1650 N.3    35  ILE35      -0.1231
      2  CA        -1.9380   71.2920   34.5710 C.3    35  ILE35       0.1692
      3  C         -2.5010   70.2170   35.4340 C.2    35  ILE35       0.2591
      4  O         -3.4820   70.4330   36.1340 O.2    35  ILE35      -0.2718
      5  CB        -2.8930   71.4390   33.3850 C.3    35  ILE35       0.0266
      6  CG1       -2.7040   72.8150   32.7380 C.3    35  ILE35       0.0019
      7  CG2       -4.3420   71.2100   33.8430 C.3    35  ILE35       0.0020
      8  CD1       -3.7770   73.1950   31.7290 C.3    35  ILE35       0.0001
      9  N         -1.8960   69.0430   35.3680 N.am   36  LEU36      -0.1980
     10  CA        -2.3750   67.9300   36.1640 C.3    36  LEU36       0.1596
     11  C         -1.2540   67.3730   37.0290 C.2    36  LEU36       0.2287
     12  O         -1.4920   66.5220   37.8680 O.2    36  LEU36      -0.2864
     13  CB        -3.0060   66.8590   35.2410 C.3    36  LEU36       0.0297
     14  CG        -4.2040   67.3990   34.3890 C.3    36  LEU36       0.0022
     15  CD1       -4.5580   66.4850   33.1700 C.3    36  LEU36       0.0001
     16  CD2       -5.4230   67.5950   35.3060 C.3    36  LEU36       0.0001
     17  N         -0.9570   70.3970   40.7570 N.3    39  PRO39      -0.2102
     18  CA        -1.8880   70.1420   41.8620 C.3    39  PRO39       0.1504
     19  C         -1.4150   68.9240   42.6580 C.2    39  PRO39       0.2576
     20  O         -1.0690   69.0270   43.8340 O.2    39  PRO39      -0.2718
     21  CB        -3.2170   69.9050   41.1420 C.3    39  PRO39       0.0282
     22  CG        -3.1360   70.8580   40.0020 C.3    39  PRO39       0.0208
     23  CD        -1.6990   70.6540   39.5070 C.3    39  PRO39       0.0893
     24  N         -1.3560   67.7820   41.9880 N.am   40  CYS40      -0.1971
     25  CA        -0.9060   66.5580   42.6100 C.3    40  CYS40       0.1712
     26  C          0.4150   66.7440   43.3820 C.2    40  CYS40       0.2296
     27  O          0.3820   67.0230   44.5830 O.2    40  CYS40      -0.2864
     28  CB        -0.8050   65.4910   41.5260 C.3    40  CYS40       0.0983
     29  SG        -2.4250   65.2080   40.7390 S.3    40  CYS40      -0.0798
     30  N          0.2190   69.0520   46.2090 N.3    43  LEU43      -0.1245
     31  CA        -0.8580   68.5210   47.0040 C.3    43  LEU43       0.1561
     32  C         -0.3870   67.2870   47.7460 C.2    43  LEU43       0.2260
     33  O         -0.6840   67.0840   48.9190 O.2    43  LEU43      -0.2867
     34  CB        -2.0060   68.1570   46.0850 C.3    43  LEU43       0.0270
     35  CG        -3.3300   67.9030   46.7670 C.3    43  LEU43       0.0019
     36  CD1       -3.8230   69.1630   47.3440 C.3    43  LEU43       0.0001
     37  CD2       -4.3090   67.3520   45.7710 C.3    43  LEU43       0.0001
     38  N        -10.0360   53.7180   49.0360 N.3    89  LEU89      -0.1231
     39  CA        -9.3850   54.9560   48.6090 C.3    89  LEU89       0.1693
     40  C         -9.6070   55.9380   49.7690 C.2    89  LEU89       0.2592
     41  O         -9.1410   57.0800   49.7650 O.2    89  LEU89      -0.2718
     42  CB       -10.0420   55.4560   47.3120 C.3    89  LEU89       0.0284
     43  CG        -9.9920   54.5020   46.1250 C.3    89  LEU89       0.0019
     44  CD1      -10.8360   55.0040   44.9720 C.3    89  LEU89       0.0001
     45  CD2       -8.5700   54.2660   45.6500 C.3    89  LEU89       0.0001
     46  N        -10.3420   55.4580   50.7650 N.am   90  LEU90      -0.1966
     47  CA       -10.6240   56.2200   51.9500 C.3    90  LEU90       0.1728
     48  C        -10.7360   57.6640   51.5440 C.2    90  LEU90       0.2616
     49  O         -9.9370   58.4950   51.9540 O.2    90  LEU90      -0.2715
     50  CB        -9.4910   56.0320   52.9460 C.3    90  LEU90       0.0311
     51  CG        -9.8010   56.2520   54.4170 C.3    90  LEU90       0.0022
     52  CD1      -11.0180   55.4260   54.8180 C.3    90  LEU90       0.0001
     53  CD2       -8.5750   55.8750   55.2380 C.3    90  LEU90       0.0001
     54  N        -11.7180   57.9470   50.6940 N.am   91  LEU91      -0.1963
     55  CA       -11.9600   59.3050   50.2260 C.3    91  LEU91       0.1728
     56  C        -12.5080   60.0360   51.4210 C.2    91  LEU91       0.2616
     57  O        -13.1820   59.4330   52.2480 O.2    91  LEU91      -0.2715
     58  CB       -12.9870   59.3020   49.0930 C.3    91  LEU91       0.0311
     59  CG       -12.6840   58.2960   47.9800 C.3    91  LEU91       0.0022
     60  CD1      -13.5820   58.5140   46.7910 C.3    91  LEU91       0.0001
     61  CD2      -11.2640   58.4570   47.5570 C.3    91  LEU91       0.0001
     62  N        -12.2020   61.3200   51.5260 N.am   92  LEU92      -0.1963
     63  CA       -12.6800   62.1410   52.6350 C.3    92  LEU92       0.1728
     64  C        -14.2150   62.1030   52.7720 C.2    92  LEU92       0.2616
     65  O        -14.7790   62.8270   53.5900 O.2    92  LEU92      -0.2715
     66  CB       -12.2030   63.5740   52.4130 C.3    92  LEU92       0.0311
     67  CG       -12.6560   64.7050   53.3050 C.3    92  LEU92       0.0022
     68  CD1      -12.3340   64.3800   54.7300 C.3    92  LEU92       0.0001
     69  CD2      -11.9670   65.9760   52.8680 C.3    92  LEU92       0.0001
     70  N        -14.8720   61.2380   51.9840 N.am   93  TRP93      -0.1974
     71  CA       -16.3360   61.1150   51.9690 C.3    93  TRP93       0.1640
     72  C        -16.9860   59.7780   52.3590 C.2    93  TRP93       0.2290
     73  O        -18.0560   59.8050   52.9370 O.2    93  TRP93      -0.2864
     74  CB       -16.8520   61.5380   50.5970 C.3    93  TRP93       0.0576
     75  CG       -15.9390   62.5100   49.9710 C.ar   93  TRP93       0.0006
     76  CD1      -15.4470   63.6350   50.5380 C.ar   93  TRP93       0.0946
     77  CD2      -15.3040   62.3880   48.7080 C.ar   93  TRP93       0.0152
     78  NE1      -14.5240   64.2240   49.7110 N.ar   93  TRP93      -0.2442
     79  CE2      -14.4190   63.4760   48.5780 C.ar   93  TRP93       0.0810
     80  CE3      -15.3910   61.4610   47.6720 C.ar   93  TRP93       0.0012
     81  CZ2      -13.6250   63.6670   47.4600 C.ar   93  TRP93       0.0191
     82  CZ3      -14.5990   61.6480   46.5510 C.ar   93  TRP93       0.0001
     83  CH2      -13.7250   62.7460   46.4570 C.ar   93  TRP93       0.0015
     84  N        -12.9670   65.8510   59.5290 N.3   101  PHE101     -0.1241
     85  CA       -11.9230   65.8520   58.5470 C.3   101  PHE101      0.1605
     86  C        -10.8230   65.2750   59.3610 C.2   101  PHE101      0.2264
     87  O        -10.0070   64.4640   58.9370 O.2   101  PHE101     -0.2867
     88  CB       -11.4730   67.2650   58.1590 C.3   101  PHE101      0.0534
     89  CG       -10.0190   67.4310   57.8580 C.ar  101  PHE101     -0.0203
     90  CD1       -9.5810   67.1570   56.5860 C.ar  101  PHE101     -0.0042
     91  CD2       -9.0970   67.8460   58.8060 C.ar  101  PHE101     -0.0042
     92  CE1       -8.2600   67.3290   56.2460 C.ar  101  PHE101     -0.0003
     93  CE2       -7.7590   67.9950   58.4790 C.ar  101  PHE101     -0.0003
     94  CZ        -7.3400   67.7540   57.1940 C.ar  101  PHE101     -0.0000
     95  N        -10.9160   61.8780   59.3510 N.3   104  TRP104     -0.1241
     96  CA       -10.3700   61.3680   58.1160 C.3   104  TRP104      0.1605
     97  C         -8.8910   61.1910   58.4610 C.2   104  TRP104      0.2264
     98  O         -8.3080   60.1390   58.2280 O.2   104  TRP104     -0.2867
     99  CB       -10.5090   62.3710   56.9760 C.3   104  TRP104      0.0550
    100  CG       -10.1030   61.8100   55.6460 C.ar  104  TRP104      0.0003
    101  CD1      -10.6460   60.7340   55.0090 C.ar  104  TRP104      0.0946
    102  CD2       -9.1290   62.3480   54.7620 C.ar  104  TRP104      0.0152
    103  NE1      -10.0800   60.5740   53.7820 N.ar  104  TRP104     -0.2442
    104  CE2       -9.1420   61.5530   53.6020 C.ar  104  TRP104      0.0810
    105  CE3       -8.2410   63.4330   54.8340 C.ar  104  TRP104      0.0012
    106  CZ2       -8.3040   61.8070   52.5180 C.ar  104  TRP104      0.0191
    107  CZ3       -7.4060   63.6860   53.7570 C.ar  104  TRP104      0.0001
    108  CH2       -7.4430   62.8780   52.6140 C.ar  104  TRP104      0.0015
    109  N         -3.6780   57.3110   51.2920 N.3   112  THR112     -0.1203
    110  CA        -4.2350   57.2670   49.9480 C.3   112  THR112      0.1994
    111  C         -3.9940   58.6200   49.3190 C.2   112  THR112      0.2617
    112  O         -3.6840   58.7290   48.1330 O.2   112  THR112     -0.2717
    113  CB        -5.7280   57.0580   50.0020 C.3   112  THR112      0.1784
    114  OG1       -6.2830   57.9820   50.9460 O.3   112  THR112     -0.2211
    115  CG2       -6.0610   55.6480   50.4180 C.3   112  THR112      0.0376
    116  N         -4.1540   59.6540   50.1410 N.am  113  PHE113     -0.1975
    117  CA        -3.9330   60.9960   49.6750 C.3   113  PHE113      0.1639
    118  C         -2.5800   60.9930   49.0360 C.2   113  PHE113      0.2290
    119  O         -2.4740   61.1720   47.8240 O.2   113  PHE113     -0.2864
    120  CB        -3.9720   62.0070   50.7980 C.3   113  PHE113      0.0560
    121  CG        -4.0680   63.4230   50.3090 C.ar  113  PHE113     -0.0200
    122  CD1       -2.9240   64.2440   50.2270 C.ar  113  PHE113     -0.0042
    123  CD2       -5.3060   63.9490   49.9350 C.ar  113  PHE113     -0.0042
    124  CE1       -3.0150   65.5680   49.7860 C.ar  113  PHE113     -0.0003
    125  CE2       -5.4130   65.2710   49.4920 C.ar  113  PHE113     -0.0003
    126  CZ        -4.2660   66.0810   49.4200 C.ar  113  PHE113     -0.0000
    127  N         -2.4540   57.9320   46.0140 N.3   116  LEU116     -0.1231
    128  CA        -3.1760   58.2280   44.7850 C.3   116  LEU116      0.1693
    129  C         -2.7560   59.4850   44.0470 C.2   116  LEU116      0.2592
    130  O         -2.6730   59.4860   42.8140 O.2   116  LEU116     -0.2718
    131  CB        -4.6690   58.2810   45.0820 C.3   116  LEU116      0.0284
    132  CG        -5.2500   56.9190   45.4320 C.3   116  LEU116      0.0019
    133  CD1       -6.6990   57.0490   45.7770 C.3   116  LEU116      0.0001
    134  CD2       -5.0740   56.0000   44.2470 C.3   116  LEU116      0.0001
    135  N         -2.5070   60.5540   44.8050 N.am  117  HIS117     -0.1976
    136  CA        -2.1040   61.8240   44.2170 C.3   117  HIS117      0.1656
    137  C         -0.7140   61.6920   43.6540 C.2   117  HIS117      0.2291
    138  O         -0.5090   61.9280   42.4660 O.2   117  HIS117     -0.2864
    139  CB        -2.1970   62.9570   45.2350 C.3   117  HIS117      0.0771
    140  CG        -3.6080   63.3840   45.5200 C.ar  117  HIS117      0.0820
    141  ND1       -4.2100   63.1950   46.7440 N.ar  117  HIS117     -0.2267
    142  CD2       -4.5490   63.9460   44.7230 C.ar  117  HIS117      0.1154
    143  CE1       -5.4610   63.6170   46.6890 C.ar  117  HIS117      0.1986
    144  NE2       -5.6910   64.0780   45.4740 N.ar  117  HIS117     -0.2212
    145  N         -0.7720   59.9780   40.4210 N.3   120  PHE120     -0.1241
    146  CA        -1.0340   60.8510   39.3010 C.3   120  PHE120      0.1605
    147  C          0.0920   61.8520   39.1200 C.2   120  PHE120      0.2264
    148  O          0.4420   62.1950   38.0070 O.2   120  PHE120     -0.2867
    149  CB        -2.3750   61.5430   39.4880 C.3   120  PHE120      0.0534
    150  CG        -3.5440   60.6380   39.2390 C.ar  120  PHE120     -0.0203
    151  CD1       -3.8990   60.2770   37.9430 C.ar  120  PHE120     -0.0042
    152  CD2       -4.2760   60.1240   40.3000 C.ar  120  PHE120     -0.0042
    153  CE1       -4.9610   59.4230   37.7020 C.ar  120  PHE120     -0.0003
    154  CE2       -5.3410   59.2660   40.0660 C.ar  120  PHE120     -0.0003
    155  CZ        -5.6810   58.9170   38.7580 C.ar  120  PHE120     -0.0000
@<TRIPOS>BOND
     1     8     6    1
     2     6     5    1
     3    15    14    1
     4     5     7    1
     5     5     2    1
     6     1     2    1
     7    14    13    1
     8    14    16    1
     9     2     3    1
    10    13    10    1
    11     9     3   am
    12     9    10    1
    13     3     4    2
    14    10    11    1
    15    11    12    2
    16   153   151   ar
    17   153   155   ar
    18   151   150   ar
    19   148   147    2
    20   155   154   ar
    21   147   146    1
    22   150   149    1
    23   150   152   ar
    24   146   149    1
    25   146   145    1
    26    23    22    1
    27    23    17    1
    28    22    21    1
    29   154   152   ar
    30    29    28    1
    31    17    18    1
    32    21    18    1
    33    28    25    1
    34    18    19    1
    35    24    25    1
    36    24    19   am
    37   138   137    2
    38    25    26    1
    39    19    20    2
    40   130   129    2
    41    26    27    2
    42   137   136    1
    43   129   128    1
    44   129   135   am
    45   136   135    1
    46   136   139    1
    47   134   132    1
    48   142   144   ar
    49   142   140   ar
    50   128   131    1
    51   128   127    1
    52    44    43    1
    53   131   132    1
    54   139   140    1
    55   132   133    1
    56   144   143   ar
    57   140   141   ar
    58    45    43    1
    59    37    35    1
    60    34    35    1
    61    34    31    1
    62    43    42    1
    63    30    31    1
    64    83    82   ar
    65    83    81   ar
    66    82    80   ar
    67   143   141   ar
    68    35    36    1
    69    60    59    1
    70    31    32    1
    71    42    39    1
    72    81    79   ar
    73    61    59    1
    74    80    77   ar
    75    32    33    2
    76   119   118    2
    77    59    58    1
    78   112   111    2
    79    79    77   ar
    80    79    78   ar
    81    39    38    1
    82    39    40    1
    83    77    75   ar
    84   118   117    1
    85    58    55    1
    86   111   110    1
    87   111   116   am
    88   126   125   ar
    89   126   124   ar
    90   125   123   ar
    91   117   116    1
    92   117   120    1
    93    78    76   ar
    94    41    40    2
    95    40    46   am
    96   124   122   ar
    97   123   121   ar
    98   110   113    1
    99   110   109    1
   100    75    76   ar
   101    75    74    1
   102   113   115    1
   103   113   114    1
   104    55    54    1
   105    55    56    1
   106   122   121   ar
   107   121   120    1
   108    74    71    1
   109    54    48   am
   110    46    47    1
   111    56    62   am
   112    56    57    2
   113    62    63    1
   114    48    47    1
   115    48    49    2
   116    47    50    1
   117    71    70    1
   118    71    72    1
   119    70    64   am
   120    72    73    2
   121    66    63    1
   122    66    67    1
   123   106   108   ar
   124   106   104   ar
   125   108   107   ar
   126    63    64    1
   127    64    65    2
   128    69    67    1
   129    50    51    1
   130    67    68    1
   131   104   103   ar
   132   104   102   ar
   133   107   105   ar
   134   103   101   ar
   135    51    52    1
   136    51    53    1
   137   102   105   ar
   138   102   100   ar
   139   101   100   ar
   140   100    99    1
   141    92    90   ar
   142    92    94   ar
   143    90    89   ar
   144    99    96    1
   145    94    93   ar
   146    89    88    1
   147    89    91   ar
   148    96    97    1
   149    96    95    1
   150    88    85    1
   151    98    97    2
   152    93    91   ar
   153    85    86    1
   154    85    84    1
   155    87    86    2
