@<TRIPOS>MOLECULE
tmp/1w5cB13.pdb
 112 107 0 0 0
SMALL
GASTEIGER

@<TRIPOS>ATOM
      1  N         -2.8020   62.3530   17.0090 N.3   227  LEU227     -0.1245
      2  CA        -2.1710   61.0670   17.3200 C.3   227  LEU227      0.1561
      3  C         -1.3490   60.4880   16.1650 C.2   227  LEU227      0.2260
      4  O         -1.3320   59.2570   16.0000 O.2   227  LEU227     -0.2867
      5  CB        -3.2460   60.0680   17.7600 C.3   227  LEU227      0.0270
      6  CG        -3.8860   60.3160   19.1250 C.3   227  LEU227      0.0019
      7  CD1       -5.0110   59.3260   19.3180 C.3   227  LEU227      0.0001
      8  CD2       -2.8950   60.1640   20.2510 C.3   227  LEU227      0.0001
      9  N          1.0340   54.4270   16.4170 N.3   234  THR234     -0.1218
     10  CA        -0.0620   54.9310   17.2350 C.3   234  THR234      0.1862
     11  C         -1.1900   53.9310   17.4420 C.2   234  THR234      0.2287
     12  O         -1.7390   53.8140   18.5340 O.2   234  THR234     -0.2866
     13  CB        -0.6620   56.2090   16.6470 C.3   234  THR234      0.1770
     14  OG1       -1.5740   56.8050   17.5920 O.3   234  THR234     -0.2211
     15  CG2       -1.3740   55.8820   15.3560 C.3   234  THR234      0.0375
     16  N          0.2920   51.1660   20.2430 N.3   237  SER237     -0.1202
     17  CA         0.3430   51.6350   21.6190 C.3   237  SER237      0.2020
     18  C         -1.0430   51.9360   22.1330 C.2   237  SER237      0.2619
     19  O         -1.3200   51.7950   23.3120 O.2   237  SER237     -0.2717
     20  CB         1.2030   52.8780   21.7140 C.3   237  SER237      0.2103
     21  OG         0.8990   53.7480   20.6640 O.3   237  SER237     -0.2182
     22  N         -1.9260   52.3480   21.2390 N.am  238  SER238     -0.1951
     23  CA        -3.2890   52.6600   21.6340 C.3   238  SER238      0.1924
     24  C         -3.9650   51.3940   22.1280 C.2   238  SER238      0.2314
     25  O         -4.5690   51.3850   23.1880 O.2   238  SER238     -0.2863
     26  CB        -4.0660   53.2530   20.4510 C.3   238  SER238      0.2116
     27  OG        -3.9900   54.6750   20.3850 O.3   238  SER238     -0.2180
     28  N         -2.1930   49.7710   25.3510 N.3   241  ALA241     -0.1231
     29  CA        -2.5590   50.3690   26.6270 C.3   241  ALA241      0.1694
     30  C         -3.8900   49.7920   27.0480 C.2   241  ALA241      0.2591
     31  O         -4.1770   49.6790   28.2270 O.2   241  ALA241     -0.2718
     32  CB        -2.6800   51.8680   26.4860 C.3   241  ALA241      0.0304
     33  N         -4.6930   49.4260   26.0540 N.am  242  ALA242     -0.1980
     34  CA        -6.0140   48.8670   26.2700 C.3   242  ALA242      0.1597
     35  C         -5.9960   47.4190   26.6940 C.2   242  ALA242      0.2287
     36  O         -6.9410   46.9750   27.3130 O.2   242  ALA242     -0.2864
     37  CB        -6.8300   49.0160   25.0370 C.3   242  ALA242      0.0319
     38  N         -3.2190   46.2950   28.1790 N.3   244  PHE244     -0.1227
     39  CA        -2.4910   46.7010   29.3630 C.3   244  PHE244      0.1736
     40  C         -3.4990   46.9360   30.5040 C.2   244  PHE244      0.2595
     41  O         -3.2450   46.6120   31.6420 O.2   244  PHE244     -0.2718
     42  CB        -1.7880   47.9950   28.9580 C.3   244  PHE244      0.0547
     43  CG        -1.3070   48.8120   30.0770 C.ar  244  PHE244     -0.0202
     44  CD1       -0.0860   48.5320   30.6600 C.ar  244  PHE244     -0.0042
     45  CD2       -2.0400   49.9040   30.5110 C.ar  244  PHE244     -0.0042
     46  CE1        0.4030   49.3390   31.6630 C.ar  244  PHE244     -0.0003
     47  CE2       -1.5690   50.7120   31.5030 C.ar  244  PHE244     -0.0003
     48  CZ        -0.3420   50.4370   32.0880 C.ar  244  PHE244     -0.0000
     49  N         -4.6460   47.5100   30.1530 N.am  245  PHE245     -0.1976
     50  CA        -5.7470   47.8410   31.0590 C.3   245  PHE245      0.1639
     51  C         -6.6630   46.6500   31.1920 C.2   245  PHE245      0.2290
     52  O         -7.1500   46.3570   32.2720 O.2   245  PHE245     -0.2864
     53  CB        -6.5310   49.0280   30.4740 C.3   245  PHE245      0.0560
     54  CG        -7.9130   49.2320   31.0610 C.ar  245  PHE245     -0.0200
     55  CD1       -8.0990   50.0030   32.2010 C.ar  245  PHE245     -0.0042
     56  CD2       -9.0330   48.7150   30.4190 C.ar  245  PHE245     -0.0042
     57  CE1       -9.3780   50.2570   32.6810 C.ar  245  PHE245     -0.0003
     58  CE2      -10.3130   48.9620   30.8940 C.ar  245  PHE245     -0.0003
     59  CZ       -10.4870   49.7330   32.0220 C.ar  245  PHE245     -0.0000
     60  N          3.2710   47.9670   30.0250 N.3   461  PHE461     -0.1241
     61  CA         3.2670   49.3990   30.2560 C.3   461  PHE461      0.1605
     62  C          4.4830   49.8910   29.4790 C.2   461  PHE461      0.2264
     63  O          4.3900   50.7500   28.6090 O.2   461  PHE461     -0.2867
     64  CB         3.4640   49.7040   31.7270 C.3   461  PHE461      0.0534
     65  CG         3.5320   51.1350   32.0240 C.ar  461  PHE461     -0.0203
     66  CD1        2.3970   51.9100   31.9660 C.ar  461  PHE461     -0.0042
     67  CD2        4.7250   51.7180   32.3800 C.ar  461  PHE461     -0.0042
     68  CE1        2.4380   53.2740   32.2680 C.ar  461  PHE461     -0.0003
     69  CE2        4.7930   53.0770   32.6890 C.ar  461  PHE461     -0.0003
     70  CZ         3.6450   53.8610   32.6340 C.ar  461  PHE461     -0.0000
     71  N          3.6170   50.3030   26.1340 N.3   464  HIS464     -0.1226
     72  CA         2.9160   51.4990   25.7410 C.3   464  HIS464      0.1752
     73  C          3.8790   52.6860   25.7600 C.2   464  HIS464      0.2595
     74  O          4.1960   53.2920   24.7460 O.2   464  HIS464     -0.2718
     75  CB         1.7810   51.7220   26.7110 C.3   464  HIS464      0.0759
     76  CG         1.0200   52.9750   26.4690 C.ar  464  HIS464      0.0818
     77  ND1        0.5510   53.3170   25.2230 N.ar  464  HIS464     -0.2268
     78  CD2        0.5760   53.9330   27.3160 C.ar  464  HIS464      0.1154
     79  CE1       -0.1550   54.4270   25.3110 C.ar  464  HIS464      0.1986
     80  NE2       -0.1580   54.8210   26.5720 N.ar  464  HIS464     -0.2212
     81  N          4.3710   53.0070   26.9310 N.am  465  ILE465     -0.1980
     82  CA         5.2810   54.1110   27.0600 C.3   465  ILE465      0.1595
     83  C          6.3580   54.1050   26.0090 C.2   465  ILE465      0.2287
     84  O          7.0100   55.1000   25.7910 O.2   465  ILE465     -0.2864
     85  CB         5.9420   54.0940   28.4490 C.3   465  ILE465      0.0276
     86  CG1        4.8530   54.1700   29.5080 C.3   465  ILE465      0.0022
     87  CG2        6.9090   55.2610   28.6320 C.3   465  ILE465      0.0022
     88  CD1        3.8140   55.2040   29.2120 C.3   465  ILE465      0.0001
     89  N          4.1890   53.9700   21.7180 N.3   468  GLY468     -0.1210
     90  CA         3.5220   55.2420   21.5410 C.3   468  GLY468      0.1956
     91  C          4.5680   56.3010   21.2900 C.2   468  GLY468      0.2611
     92  O          4.3000   57.2630   20.6000 O.2   468  GLY468     -0.2717
     93  N          5.7610   56.1180   21.8520 N.am  469  ALA469     -0.1979
     94  CA         6.8400   57.0660   21.6620 C.3   469  ALA469      0.1597
     95  C          6.9910   57.1590   20.1800 C.2   469  ALA469      0.2287
     96  O          6.6020   58.1510   19.5830 O.2   469  ALA469     -0.2864
     97  CB         8.0960   56.5650   22.2590 C.3   469  ALA469      0.0319
     98  N          5.3410   56.6370   17.9890 N.3   471  THR471     -0.1203
     99  CA         4.1840   57.2870   17.3900 C.3   471  THR471      0.1994
    100  C          4.4010   58.8150   17.3620 C.2   471  THR471      0.2617
    101  O          4.7510   59.4030   16.3270 O.2   471  THR471     -0.2717
    102  CB         2.8630   56.9470   18.1560 C.3   471  THR471      0.1784
    103  OG1        2.6250   55.5420   18.1010 O.3   471  THR471     -0.2211
    104  CG2        1.6830   57.6490   17.5210 C.3   471  THR471      0.0376
    105  N          4.1980   59.4490   18.5090 N.am  472  LEU472     -0.1979
    106  CA         4.3670   60.8810   18.6000 C.3   472  LEU472      0.1596
    107  C          5.7550   61.3210   18.1420 C.2   472  LEU472      0.2287
    108  O          5.9240   62.4210   17.6330 O.2   472  LEU472     -0.2864
    109  CB         4.1240   61.3390   20.0290 C.3   472  LEU472      0.0297
    110  CG         2.7960   60.8530   20.5860 C.3   472  LEU472      0.0022
    111  CD1        2.7040   61.2640   22.0470 C.3   472  LEU472      0.0001
    112  CD2        1.6480   61.4160   19.7690 C.3   472  LEU472      0.0001
@<TRIPOS>BOND
     1    15    13    1
     2     4     3    2
     3     3     2    1
     4   101   100    2
     5     9    10    1
     6    13    10    1
     7    13    14    1
     8     1     2    1
     9    10    11    1
    10     2     5    1
    11   100    99    1
    12   100   105   am
    13    99    98    1
    14    99   102    1
    15    11    12    2
    16   104   102    1
    17   108   107    2
    18     5     6    1
    19   103   102    1
    20   107   106    1
    21   105   106    1
    22   106   109    1
    23     6     7    1
    24     6     8    1
    25    96    95    2
    26   112   110    1
    27   109   110    1
    28    95    94    1
    29    16    17    1
    30    27    26    1
    31    26    23    1
    32   110   111    1
    33    92    91    2
    34    21    20    1
    35    22    23    1
    36    22    18   am
    37    91    90    1
    38    91    93   am
    39    90    89    1
    40    17    20    1
    41    17    18    1
    42    23    24    1
    43    94    93    1
    44    94    97    1
    45    24    25    2
    46    18    19    2
    47    74    73    2
    48    37    34    1
    49    77    79   ar
    50    77    76   ar
    51    79    80   ar
    52    28    29    1
    53    72    73    1
    54    72    71    1
    55    72    75    1
    56    73    81   am
    57    84    83    2
    58    83    82    1
    59    33    34    1
    60    33    30   am
    61    34    35    1
    62    76    75    1
    63    76    78   ar
    64    32    29    1
    65    80    78   ar
    66    29    30    1
    67    35    36    2
    68    81    82    1
    69    30    31    2
    70    82    85    1
    71    38    39    1
    72    85    87    1
    73    85    86    1
    74    63    62    2
    75    42    39    1
    76    42    43    1
    77    88    86    1
    78    39    40    1
    79    62    61    1
    80    60    61    1
    81    43    45   ar
    82    43    44   ar
    83    49    40   am
    84    49    50    1
    85    61    64    1
    86    56    58   ar
    87    56    54   ar
    88    53    50    1
    89    53    54    1
    90    40    41    2
    91    45    47   ar
    92    44    46   ar
    93    58    59   ar
    94    50    51    1
    95    54    55   ar
    96    51    52    2
    97    47    48   ar
    98    46    48   ar
    99    64    65    1
   100    66    65   ar
   101    66    68   ar
   102    59    57   ar
   103    65    67   ar
   104    55    57   ar
   105    68    70   ar
   106    67    69   ar
   107    70    69   ar
