@<TRIPOS>MOLECULE
tmp/1w5cA07.pdb
 75 70 0 0 0
SMALL
GASTEIGER

@<TRIPOS>ATOM
      1  N         23.2090   54.8690   50.8680 N.3   195  VAL195     -0.1231
      2  CA        22.0310   54.5810   50.0830 C.3   195  VAL195      0.1692
      3  C         21.7520   55.7590   49.1870 C.2   195  VAL195      0.2591
      4  O         21.4800   55.5770   48.0110 O.2   195  VAL195     -0.2718
      5  CB        20.8170   54.3480   50.9490 C.3   195  VAL195      0.0266
      6  CG1       19.6490   54.0270   50.1040 C.3   195  VAL195      0.0020
      7  CG2       21.0630   53.2260   51.8570 C.3   195  VAL195      0.0020
      8  N         21.8050   56.9730   49.7220 N.am  196  ALA196     -0.1980
      9  CA        21.5540   58.1300   48.8730 C.3   196  ALA196      0.1597
     10  C         22.5760   58.0160   47.7620 C.2   196  ALA196      0.2287
     11  O         22.2570   58.1030   46.5740 O.2   196  ALA196     -0.2864
     12  CB        21.7590   59.4240   49.6380 C.3   196  ALA196      0.0319
     13  N         21.8090   54.6000   45.7090 N.3   199  PHE199     -0.1227
     14  CA        20.4630   54.7550   45.1610 C.3   199  PHE199      0.1736
     15  C         20.4460   55.8910   44.1450 C.2   199  PHE199      0.2596
     16  O         19.7880   55.8220   43.1020 O.2   199  PHE199     -0.2718
     17  CB        19.4660   55.1040   46.2570 C.3   199  PHE199      0.0547
     18  CG        18.4390   54.0660   46.4760 C.ar  199  PHE199     -0.0202
     19  CD1       18.7250   52.9450   47.2150 C.ar  199  PHE199     -0.0042
     20  CD2       17.1890   54.1850   45.9180 C.ar  199  PHE199     -0.0042
     21  CE1       17.7790   51.9580   47.3930 C.ar  199  PHE199     -0.0003
     22  CE2       16.2500   53.2040   46.0980 C.ar  199  PHE199     -0.0003
     23  CZ        16.5450   52.0840   46.8380 C.ar  199  PHE199     -0.0000
     24  N         21.1640   56.9520   44.4870 N.am  200  GLY200     -0.1957
     25  CA        21.2470   58.1020   43.6170 C.3   200  GLY200      0.1869
     26  C         22.0490   57.8070   42.3670 C.2   200  GLY200      0.2309
     27  O         21.5360   57.9260   41.2420 O.2   200  GLY200     -0.2863
     28  N         22.6480   55.3910   40.6310 N.3   202  ALA202     -0.1231
     29  CA        21.8250   54.7080   39.6440 C.3   202  ALA202      0.1694
     30  C         20.9050   55.7430   39.0560 C.2   202  ALA202      0.2591
     31  O         20.8180   55.8840   37.8510 O.2   202  ALA202     -0.2718
     32  CB        21.0110   53.6310   40.3000 C.3   202  ALA202      0.0304
     33  N         20.2130   56.4600   39.9320 N.am  203  LEU203     -0.1980
     34  CA        19.3030   57.4900   39.5080 C.3   203  LEU203      0.1596
     35  C         19.9900   58.3530   38.5070 C.2   203  LEU203      0.2287
     36  O         19.4990   58.5150   37.3890 O.2   203  LEU203     -0.2864
     37  CB        18.8540   58.3200   40.6970 C.3   203  LEU203      0.0297
     38  CG        18.5210   59.8080   40.5630 C.3   203  LEU203      0.0022
     39  CD1       17.7500   60.0600   39.3280 C.3   203  LEU203      0.0001
     40  CD2       17.7180   60.2750   41.7710 C.3   203  LEU203      0.0001
     41  N         21.0950   56.8890   35.2590 N.3   206  ALA206     -0.1231
     42  CA        19.9090   56.7860   34.4290 C.3   206  ALA206      0.1694
     43  C         19.8390   58.0340   33.6020 C.2   206  ALA206      0.2591
     44  O         19.7750   57.9740   32.3740 O.2   206  ALA206     -0.2718
     45  CB        18.6670   56.6770   35.2860 C.3   206  ALA206      0.0304
     46  N         19.8980   59.1800   34.2740 N.am  207  MET207     -0.1979
     47  CA        19.7900   60.4400   33.5520 C.3   207  MET207      0.1605
     48  C         20.9240   60.7100   32.5860 C.2   207  MET207      0.2287
     49  O         20.6820   60.7200   31.3900 O.2   207  MET207     -0.2864
     50  CB        19.6100   61.6100   34.5370 C.3   207  MET207      0.0413
     51  CG        18.1890   61.7320   35.0670 C.3   207  MET207      0.0598
     52  SD        17.7040   63.4470   35.3800 S.3   207  MET207     -0.1393
     53  CE        18.8590   63.8960   36.6670 C.3   207  MET207      0.0692
     54  N         20.5110   58.7190   29.9590 N.3   210  SER210     -0.1217
     55  CA        19.2100   59.0580   29.4250 C.3   210  SER210      0.1889
     56  C         19.2290   60.2900   28.5220 C.2   210  SER210      0.2288
     57  O         18.9150   60.1910   27.3310 O.2   210  SER210     -0.2866
     58  CB        18.2560   59.3050   30.5610 C.3   210  SER210      0.2089
     59  OG        17.1320   59.9910   30.0820 O.3   210  SER210     -0.2183
     60  N         12.9300   70.9580   31.9170 N.3   249  LEU249     -0.1231
     61  CA        12.1380   70.0850   32.7640 C.3   249  LEU249      0.1693
     62  C         12.1980   70.4250   34.2340 C.2   249  LEU249      0.2591
     63  O         11.1710   70.6970   34.8460 O.2   249  LEU249     -0.2718
     64  CB        12.5480   68.6330   32.5710 C.3   249  LEU249      0.0284
     65  CG        11.7240   67.5920   33.3360 C.3   249  LEU249      0.0019
     66  CD1       10.2820   67.5130   32.8340 C.3   249  LEU249      0.0001
     67  CD2       12.4110   66.2610   33.1530 C.3   249  LEU249      0.0001
     68  N         13.3930   70.4320   34.8070 N.am  250  ILE250     -0.1980
     69  CA        13.5230   70.7200   36.2330 C.3   250  ILE250      0.1595
     70  C         13.5500   72.2110   36.6260 C.2   250  ILE250      0.2287
     71  O         12.9570   72.5860   37.6340 O.2   250  ILE250     -0.2864
     72  CB        14.7810   70.0230   36.8140 C.3   250  ILE250      0.0276
     73  CG1       14.8540   68.5750   36.3020 C.3   250  ILE250      0.0022
     74  CG2       14.7380   70.0670   38.3670 C.3   250  ILE250      0.0022
     75  CD1       16.1710   67.8580   36.5650 C.3   250  ILE250      0.0001
@<TRIPOS>BOND
     1    57    56    2
     2    56    55    1
     3    55    54    1
     4    55    58    1
     5    59    58    1
     6    49    48    2
     7    60    61    1
     8    44    43    2
     9    64    61    1
    10    64    65    1
    11    48    47    1
    12    61    62    1
    13    66    65    1
    14    67    65    1
    15    47    46    1
    16    47    50    1
    17    43    46   am
    18    43    42    1
    19    62    68   am
    20    62    63    2
    21    42    41    1
    22    42    45    1
    23    50    51    1
    24    68    69    1
    25    51    52    1
    26    52    53    1
    27    69    70    1
    28    69    72    1
    29    73    75    1
    30    73    72    1
    31    70    71    2
    32    72    74    1
    33    36    35    2
    34    31    30    2
    35    35    34    1
    36    30    29    1
    37    30    33   am
    38    39    38    1
    39    34    33    1
    40    34    37    1
    41    29    32    1
    42    29    28    1
    43    38    37    1
    44    38    40    1
    45    27    26    2
    46    26    25    1
    47    16    15    2
    48    25    24    1
    49    15    24   am
    50    15    14    1
    51    14    13    1
    52    14    17    1
    53    20    22   ar
    54    20    18   ar
    55    22    23   ar
    56    17    18    1
    57    18    19   ar
    58    11    10    2
    59    23    21   ar
    60    19    21   ar
    61    10     9    1
    62     4     3    2
    63     9    12    1
    64     9     8    1
    65     3     8   am
    66     3     2    1
    67     2     1    1
    68     2     5    1
    69     6     5    1
    70     5     7    1
