@<TRIPOS>MOLECULE
tmp/1w5cE00.pdb
 91 88 0 0 0
SMALL
GASTEIGER

@<TRIPOS>ATOM
      1  N         17.6520   85.3040   40.4780 N.3     3  PHE3       -0.1241
      2  CA        17.3410   85.5450   41.8880 C.3     3  PHE3        0.1605
      3  C         18.4090   86.1390   42.8250 C.2     3  PHE3        0.2264
      4  O         18.9400   85.4070   43.6470 O.2     3  PHE3       -0.2867
      5  CB        16.9300   84.2220   42.5070 C.3     3  PHE3        0.0534
      6  CG        15.4680   83.9920   42.5810 C.ar    3  PHE3       -0.0203
      7  CD1       14.8330   83.9850   43.8060 C.ar    3  PHE3       -0.0042
      8  CD2       14.7510   83.6320   41.4580 C.ar    3  PHE3       -0.0042
      9  CE1       13.5120   83.6060   43.9090 C.ar    3  PHE3       -0.0003
     10  CE2       13.4170   83.2470   41.5560 C.ar    3  PHE3       -0.0003
     11  CZ        12.8040   83.2300   42.7750 C.ar    3  PHE3       -0.0000
     12  N         16.1380   90.7670   44.0110 N.3     6  ILE6       -0.1231
     13  CA        15.1010   90.9080   45.0190 C.3     6  ILE6        0.1692
     14  C         15.6100   90.6440   46.4400 C.2     6  ILE6        0.2591
     15  O         15.3180   91.3950   47.3660 O.2     6  ILE6       -0.2718
     16  CB        13.9300   89.9680   44.7260 C.3     6  ILE6        0.0266
     17  CG1       13.5050   90.1040   43.2620 C.3     6  ILE6        0.0019
     18  CG2       12.7940   90.3020   45.6600 C.3     6  ILE6        0.0020
     19  CD1       12.1940   89.4450   42.9230 C.3     6  ILE6        0.0001
     20  N         16.3730   89.5650   46.5920 N.am    7  ILE7       -0.1980
     21  CA        16.9390   89.1640   47.8780 C.3     7  ILE7        0.1595
     22  C         17.8930   90.2390   48.3730 C.2     7  ILE7        0.2287
     23  O         18.1500   90.3590   49.5900 O.2     7  ILE7       -0.2864
     24  CB        17.6540   87.7750   47.7520 C.3     7  ILE7        0.0276
     25  CG1       16.5880   86.6880   47.5560 C.3     7  ILE7        0.0022
     26  CG2       18.5430   87.4990   48.9690 C.3     7  ILE7        0.0022
     27  CD1       17.1050   85.2840   47.6250 C.3     7  ILE7        0.0001
     28  N         13.8660   96.6870   49.5450 N.3    11  ARG11      -0.1231
     29  CA        12.4360   96.8120   49.8300 C.3    11  ARG11       0.1694
     30  C         11.8740   95.4320   50.1900 C.2    11  ARG11       0.2592
     31  O         11.0170   95.3190   51.0790 O.2    11  ARG11      -0.2718
     32  CB        11.6250   97.3450   48.6710 C.3    11  ARG11       0.0321
     33  CG        10.1960   97.5610   49.1470 C.3    11  ARG11       0.0489
     34  CD         9.2010   97.6820   48.0300 C.3    11  ARG11       0.2205
     35  NE         8.8830   96.3820   47.4670 N.pl3  11  ARG11      -0.0865
     36  CZ         8.1600   96.2230   46.3740 C.cat  11  ARG11       0.5346
     37  NH1        7.6940   97.2850   45.7390 N.pl3  11  ARG11       0.1354
     38  NH2        7.9040   95.0110   45.9220 N.pl3  11  ARG11       0.1354
     39  N         12.3550   94.4020   49.4730 N.am   12  TYR12      -0.1976
     40  CA        11.9710   93.0020   49.6930 C.3    12  TYR12       0.1639
     41  C         12.1010   92.7440   51.1770 C.2    12  TYR12       0.2290
     42  O         11.1810   92.2730   51.8380 O.2    12  TYR12      -0.2864
     43  CB        12.9260   92.0710   48.9100 C.3    12  TYR12       0.0560
     44  CG        13.0080   90.6150   49.3950 C.ar   12  TYR12      -0.0198
     45  CD1       13.5600   90.2910   50.6370 C.ar   12  TYR12      -0.0009
     46  CD2       12.5110   89.5730   48.6230 C.ar   12  TYR12      -0.0009
     47  CE1       13.6030   88.9710   51.0860 C.ar   12  TYR12       0.0417
     48  CE2       12.5470   88.2720   49.0640 C.ar   12  TYR12       0.0417
     49  CZ        13.0850   87.9760   50.2840 C.ar   12  TYR12       0.1957
     50  OH        13.0770   86.6810   50.7050 O.3    12  TYR12      -0.2866
     51  N          9.1270   94.2840   53.1540 N.3    15  ILE15      -0.1231
     52  CA         7.9130   93.5040   53.0210 C.3    15  ILE15       0.1692
     53  C          7.9250   92.1590   53.7710 C.2    15  ILE15       0.2592
     54  O          7.0080   91.8760   54.5460 O.2    15  ILE15      -0.2718
     55  CB         7.6570   93.2690   51.5560 C.3    15  ILE15       0.0266
     56  CG1        7.5690   94.6130   50.8590 C.3    15  ILE15       0.0019
     57  CG2        6.4050   92.4850   51.3550 C.3    15  ILE15       0.0020
     58  CD1        7.4470   94.5230   49.3440 C.3    15  ILE15       0.0001
     59  N          8.9600   91.3410   53.5530 N.am   16  HIS16      -0.1976
     60  CA         9.0730   90.0360   54.1980 C.3    16  HIS16       0.1656
     61  C          9.4760   90.0930   55.6700 C.2    16  HIS16       0.2291
     62  O          8.9280   89.3620   56.5020 O.2    16  HIS16      -0.2864
     63  CB        10.0610   89.1890   53.4300 C.3    16  HIS16       0.0771
     64  CG         9.7070   89.0270   51.9830 C.ar   16  HIS16       0.0820
     65  ND1        9.9860   89.9910   51.0340 N.ar   16  HIS16      -0.2267
     66  CD2        9.0990   88.0110   51.3190 C.ar   16  HIS16       0.1154
     67  CE1        9.5670   89.5740   49.8500 C.ar   16  HIS16       0.1986
     68  NE2        9.0250   88.3760   49.9960 N.ar   16  HIS16      -0.2212
     69  N          6.5430   90.1590   56.9680 N.3    19  THR19      -0.1203
     70  CA         5.7070   88.9970   56.7400 C.3    19  THR19       0.1994
     71  C          6.1170   87.6550   57.3470 C.2    19  THR19       0.2617
     72  O          5.2640   86.9560   57.9290 O.2    19  THR19      -0.2717
     73  CB         5.5030   88.7600   55.2780 C.3    19  THR19       0.1784
     74  OG1        4.9240   89.9290   54.6940 O.3    19  THR19      -0.2211
     75  CG2        4.5900   87.5530   55.1020 C.3    19  THR19       0.0376
     76  N          7.3950   87.2860   57.1750 N.am   20  ILE20      -0.1979
     77  CA         7.9460   86.0180   57.6770 C.3    20  ILE20       0.1595
     78  C          7.7400   85.7970   59.1870 C.2    20  ILE20       0.2287
     79  O          7.0190   84.8800   59.5880 O.2    20  ILE20      -0.2864
     80  CB         9.4410   85.9100   57.3190 C.3    20  ILE20       0.0276
     81  CG1        9.6000   85.9300   55.8060 C.3    20  ILE20       0.0022
     82  CG2       10.0270   84.6580   57.8820 C.3    20  ILE20       0.0022
     83  CD1       11.0350   85.8300   55.3460 C.3    20  ILE20       0.0001
     84  N          4.3590   85.0440   59.9900 N.3    23  LEU23      -0.1245
     85  CA         3.9400   83.6710   59.7630 C.3    23  LEU23       0.1561
     86  C          4.5540   82.7740   60.8370 C.2    23  LEU23       0.2260
     87  O          3.8440   82.0530   61.5420 O.2    23  LEU23      -0.2867
     88  CB         4.3980   83.2120   58.3930 C.3    23  LEU23       0.0270
     89  CG         3.6750   83.9730   57.2970 C.3    23  LEU23       0.0019
     90  CD1        4.2370   83.5730   55.9500 C.3    23  LEU23       0.0001
     91  CD2        2.1930   83.6600   57.3650 C.3    23  LEU23       0.0001
@<TRIPOS>BOND
     1     1     2    1
     2     8    10   ar
     3     8     6   ar
     4    10    11   ar
     5     2     5    1
     6     2     3    1
     7     5     6    1
     8     6     7   ar
     9    11     9   ar
    10     3     4    2
    11    19    17    1
    12    17    16    1
    13     7     9   ar
    14    12    13    1
    15    16    13    1
    16    16    18    1
    17    13    14    1
    18    37    36    1
    19    38    36    1
    20    36    35    2
    21    14    20   am
    22    14    15    2
    23    20    21    1
    24    35    34    1
    25    25    27    1
    26    25    24    1
    27    24    21    1
    28    24    26    1
    29    21    22    1
    30    34    33    1
    31    22    23    2
    32    46    48   ar
    33    46    44   ar
    34    32    33    1
    35    32    29    1
    36    43    44    1
    37    43    40    1
    38    48    49   ar
    39    58    56    1
    40    44    45   ar
    41    39    40    1
    42    39    30   am
    43    28    29    1
    44    40    41    1
    45    29    30    1
    46    67    68   ar
    47    67    65   ar
    48    68    66   ar
    49    30    31    2
    50    49    50    1
    51    49    47   ar
    52    45    47   ar
    53    56    55    1
    54    65    64   ar
    55    41    42    2
    56    66    64   ar
    57    57    55    1
    58    55    52    1
    59    64    63    1
    60    52    51    1
    61    52    53    1
    62    63    60    1
    63    59    53   am
    64    59    60    1
    65    53    54    2
    66    60    61    1
    67    74    73    1
    68    75    73    1
    69    73    70    1
    70    83    81    1
    71    61    62    2
    72    81    80    1
    73    90    89    1
    74    70    69    1
    75    70    71    1
    76    76    71   am
    77    76    77    1
    78    89    91    1
    79    89    88    1
    80    80    77    1
    81    80    82    1
    82    71    72    2
    83    77    78    1
    84    88    85    1
    85    78    79    2
    86    85    84    1
    87    85    86    1
    88    86    87    2
