@<TRIPOS>MOLECULE
tmp/1w5cD07.pdb
 231 226 0 0 0
SMALL
GASTEIGER

@<TRIPOS>ATOM
      1  N          2.9660   66.4070   48.1700 N.3    45  LEU45      -0.1245
      2  CA         4.1980   66.5750   48.9190 C.3    45  LEU45       0.1561
      3  C          3.7690   67.1310   50.2500 C.2    45  LEU45       0.2260
      4  O          4.2980   66.7870   51.2990 O.2    45  LEU45      -0.2867
      5  CB         5.1040   67.5780   48.2350 C.3    45  LEU45       0.0270
      6  CG         6.5940   67.5920   48.5790 C.3    45  LEU45       0.0019
      7  CD1        7.2460   68.6230   47.6710 C.3    45  LEU45       0.0001
      8  CD2        6.8520   67.9260   50.0180 C.3    45  LEU45       0.0001
      9  N          2.2310   64.7280   53.0800 N.3    48  TRP48      -0.1241
     10  CA         3.2350   64.0560   53.8890 C.3    48  TRP48       0.1605
     11  C          3.7860   64.9320   55.0040 C.2    48  TRP48       0.2264
     12  O          3.9280   64.4840   56.1480 O.2    48  TRP48      -0.2867
     13  CB         4.3950   63.5650   53.0230 C.3    48  TRP48       0.0550
     14  CG         5.5090   62.9600   53.8380 C.ar   48  TRP48       0.0003
     15  CD1        5.4880   61.7690   54.5120 C.ar   48  TRP48       0.0946
     16  CD2        6.7730   63.5650   54.1420 C.ar   48  TRP48       0.0152
     17  NE1        6.6530   61.6010   55.2180 N.ar   48  TRP48      -0.2442
     18  CE2        7.4580   62.6870   55.0090 C.ar   48  TRP48       0.0810
     19  CE3        7.3940   64.7700   53.7670 C.ar   48  TRP48       0.0012
     20  CZ2        8.7250   62.9760   55.5030 C.ar   48  TRP48       0.0191
     21  CZ3        8.6510   65.0540   54.2580 C.ar   48  TRP48       0.0001
     22  CH2        9.3040   64.1660   55.1170 C.ar   48  TRP48       0.0015
     23  N         12.3350   63.4510   62.3910 N.3    73  PHE73      -0.1241
     24  CA        12.6610   63.0970   61.0080 C.3    73  PHE73       0.1605
     25  C         12.6180   61.5980   60.7400 C.2    73  PHE73       0.2264
     26  O         11.7330   61.0890   60.0430 O.2    73  PHE73      -0.2867
     27  CB        14.0500   63.5970   60.6340 C.3    73  PHE73       0.0534
     28  CG        14.3970   63.3690   59.1930 C.ar   73  PHE73      -0.0203
     29  CD1       14.0280   64.2860   58.2340 C.ar   73  PHE73      -0.0042
     30  CD2       15.0850   62.2390   58.7880 C.ar   73  PHE73      -0.0042
     31  CE1       14.3410   64.0870   56.8740 C.ar   73  PHE73      -0.0003
     32  CE2       15.3980   62.0370   57.4270 C.ar   73  PHE73      -0.0003
     33  CZ        15.0230   62.9670   56.4770 C.ar   73  PHE73      -0.0000
     34  N          3.1310   61.3190   39.4550 N.3   122  LEU122     -0.1245
     35  CA         4.1780   60.6170   38.7550 C.3   122  LEU122      0.1561
     36  C          3.7660   60.4210   37.3220 C.2   122  LEU122      0.2260
     37  O          4.5930   60.3340   36.4280 O.2   122  LEU122     -0.2867
     38  CB         4.4480   59.2880   39.4520 C.3   122  LEU122      0.0270
     39  CG         5.1310   59.5190   40.7940 C.3   122  LEU122      0.0019
     40  CD1        5.3760   58.2510   41.5210 C.3   122  LEU122      0.0001
     41  CD2        6.4200   60.1950   40.5090 C.3   122  LEU122      0.0001
     42  N         12.5740   56.9570   33.1420 N.3   146  PHE146     -0.1241
     43  CA        11.5980   57.2440   34.1980 C.3   146  PHE146      0.1605
     44  C         10.4990   56.2120   34.3210 C.2   146  PHE146      0.2264
     45  O          9.8930   56.0830   35.3760 O.2   146  PHE146     -0.2867
     46  CB        10.9420   58.6060   34.0110 C.3   146  PHE146      0.0534
     47  CG        10.2800   59.1220   35.2480 C.ar  146  PHE146     -0.0203
     48  CD1       11.0450   59.5530   36.3250 C.ar  146  PHE146     -0.0042
     49  CD2        8.8960   59.1520   35.3510 C.ar  146  PHE146     -0.0042
     50  CE1       10.4400   60.0060   37.4850 C.ar  146  PHE146     -0.0003
     51  CE2        8.2730   59.6020   36.5070 C.ar  146  PHE146     -0.0003
     52  CZ         9.0420   60.0290   37.5760 C.ar  146  PHE146     -0.0000
     53  N         11.5010   53.9030   37.4720 N.3   149  PRO149     -0.2116
     54  CA        11.0680   54.2410   38.8210 C.3   149  PRO149      0.1372
     55  C          9.5640   54.1390   39.0240 C.2   149  PRO149      0.2244
     56  O          9.1130   53.5970   40.0130 O.2   149  PRO149     -0.2868
     57  CB        11.5760   55.6570   38.9910 C.3   149  PRO149      0.0268
     58  CG        12.7770   55.6630   38.1730 C.3   149  PRO149      0.0207
     59  CD        12.3580   54.9630   36.9310 C.3   149  PRO149      0.0892
     60  N          8.7980   50.7150   39.8930 N.3   152  VAL152     -0.1231
     61  CA         9.2110   50.4580   41.2720 C.3   152  VAL152      0.1692
     62  C          8.1580   51.0110   42.2060 C.2   152  VAL152      0.2592
     63  O          7.8370   50.4080   43.2030 O.2   152  VAL152     -0.2718
     64  CB        10.5140   51.1620   41.6230 C.3   152  VAL152      0.0266
     65  CG1       10.7640   51.0270   43.0950 C.3   152  VAL152      0.0020
     66  CG2       11.6660   50.6020   40.8010 C.3   152  VAL152      0.0020
     67  N          7.6140   52.1650   41.8640 N.am  153  PHE153     -0.1976
     68  CA         6.6060   52.7840   42.7000 C.3   153  PHE153      0.1639
     69  C          5.2000   52.2200   42.6250 C.2   153  PHE153      0.2290
     70  O          4.4470   52.3700   43.5730 O.2   153  PHE153     -0.2864
     71  CB         6.5220   54.2840   42.4340 C.3   153  PHE153      0.0560
     72  CG         5.3920   54.9560   43.1770 C.ar  153  PHE153     -0.0200
     73  CD1        4.1140   55.0540   42.6160 C.ar  153  PHE153     -0.0042
     74  CD2        5.5910   55.4380   44.4690 C.ar  153  PHE153     -0.0042
     75  CE1        3.0620   55.6200   43.3340 C.ar  153  PHE153     -0.0003
     76  CE2        4.5340   56.0020   45.1960 C.ar  153  PHE153     -0.0003
     77  CZ         3.2760   56.0920   44.6290 C.ar  153  PHE153     -0.0000
     78  N          4.4190   48.9570   42.1010 N.3   155  SER155     -0.1202
     79  CA         4.4220   47.6370   42.6950 C.3   155  SER155      0.2020
     80  C          4.3310   47.7170   44.2510 C.2   155  SER155      0.2619
     81  O          3.4860   47.0690   44.8720 O.2   155  SER155     -0.2717
     82  CB         5.7030   46.9490   42.2600 C.3   155  SER155      0.2103
     83  OG         6.8000   47.7610   42.6360 O.3   155  SER155     -0.2182
     84  N          5.2000   48.5310   44.8530 N.am  156  VAL156     -0.1965
     85  CA         5.2850   48.7020   46.2900 C.3   156  VAL156      0.1727
     86  C          4.2320   49.5880   46.9210 C.2   156  VAL156      0.2616
     87  O          4.0490   49.5740   48.1320 O.2   156  VAL156     -0.2715
     88  CB         6.6580   49.2610   46.6670 C.3   156  VAL156      0.0290
     89  CG1        6.7580   49.5220   48.1550 C.3   156  VAL156      0.0023
     90  CG2        7.7110   48.2870   46.2600 C.3   156  VAL156      0.0023
     91  N          3.5230   50.3760   46.1440 N.am  157  PHE157     -0.1974
     92  CA         2.5530   51.2040   46.8000 C.3   157  PHE157      0.1639
     93  C          1.1590   50.9110   46.4120 C.2   157  PHE157      0.2290
     94  O          0.2710   51.0750   47.2180 O.2   157  PHE157     -0.2864
     95  CB         2.9180   52.6430   46.5970 C.3   157  PHE157      0.0560
     96  CG         4.2400   52.9910   47.2090 C.ar  157  PHE157     -0.0200
     97  CD1        5.4270   52.7280   46.5450 C.ar  157  PHE157     -0.0042
     98  CD2        4.3050   53.5250   48.4850 C.ar  157  PHE157     -0.0042
     99  CE1        6.6640   52.9920   47.1490 C.ar  157  PHE157     -0.0003
    100  CE2        5.5340   53.7900   49.0880 C.ar  157  PHE157     -0.0003
    101  CZ         6.7140   53.5180   48.4080 C.ar  157  PHE157     -0.0000
    102  N          9.6270   47.9380   56.8980 N.3   181  PHE181     -0.1227
    103  CA         9.1950   47.3050   55.6670 C.3   181  PHE181      0.1736
    104  C         10.3270   46.4300   55.1830 C.2   181  PHE181      0.2595
    105  O         10.1280   45.2840   54.8450 O.2   181  PHE181     -0.2718
    106  CB         8.8900   48.3730   54.6250 C.3   181  PHE181      0.0547
    107  CG         8.0300   47.8930   53.5050 C.ar  181  PHE181     -0.0202
    108  CD1        8.5510   47.7160   52.2320 C.ar  181  PHE181     -0.0042
    109  CD2        6.6960   47.5710   53.7360 C.ar  181  PHE181     -0.0042
    110  CE1        7.7540   47.2190   51.2020 C.ar  181  PHE181     -0.0003
    111  CE2        5.8970   47.0740   52.7210 C.ar  181  PHE181     -0.0003
    112  CZ         6.4240   46.8970   51.4500 C.ar  181  PHE181     -0.0000
    113  N         11.5320   46.9870   55.1440 N.am  182  LEU182     -0.1966
    114  CA        12.7030   46.2330   54.7190 C.3   182  LEU182      0.1728
    115  C         12.7970   44.9630   55.5370 C.2   182  LEU182      0.2616
    116  O         12.5940   43.8590   55.0370 O.2   182  LEU182     -0.2715
    117  CB        13.9740   47.0390   54.9340 C.3   182  LEU182      0.0311
    118  CG        14.1060   48.2890   54.0930 C.3   182  LEU182      0.0022
    119  CD1       15.2880   49.0800   54.5670 C.3   182  LEU182      0.0001
    120  CD2       14.2570   47.9160   52.6510 C.3   182  LEU182      0.0001
    121  N         13.1160   45.1240   56.8100 N.am  183  LEU183     -0.1977
    122  CA        13.2220   43.9840   57.6730 C.3   183  LEU183      0.1596
    123  C         11.9820   43.1250   57.5420 C.2   183  LEU183      0.2287
    124  O         12.0750   41.9550   57.2220 O.2   183  LEU183     -0.2864
    125  CB        13.4190   44.4450   59.1040 C.3   183  LEU183      0.0297
    126  CG        14.7130   45.2320   59.2140 C.3   183  LEU183      0.0022
    127  CD1       14.8680   45.7180   60.6090 C.3   183  LEU183      0.0001
    128  CD2       15.8900   44.3620   58.8360 C.3   183  LEU183      0.0001
    129  N         10.1470   42.3990   55.3740 N.3   185  PHE185     -0.1227
    130  CA        10.2800   41.5810   54.1840 C.3   185  PHE185      0.1736
    131  C         11.3230   40.5020   54.4190 C.2   185  PHE185      0.2595
    132  O         11.0200   39.3180   54.3770 O.2   185  PHE185     -0.2718
    133  CB        10.6880   42.4420   52.9820 C.3   185  PHE185      0.0547
    134  CG         9.5380   42.8740   52.1210 C.ar  185  PHE185     -0.0202
    135  CD1        8.6240   43.7910   52.5690 C.ar  185  PHE185     -0.0042
    136  CD2        9.3640   42.3440   50.8590 C.ar  185  PHE185     -0.0042
    137  CE1        7.5610   44.1640   51.7800 C.ar  185  PHE185     -0.0003
    138  CE2        8.2970   42.7190   50.0710 C.ar  185  PHE185     -0.0003
    139  CZ         7.3970   43.6290   50.5360 C.ar  185  PHE185     -0.0000
    140  N         12.5520   40.9210   54.6920 N.am  186  GLN186     -0.1979
    141  CA        13.6340   39.9820   54.9010 C.3   186  GLN186      0.1601
    142  C         13.1590   38.7820   55.6700 C.2   186  GLN186      0.2287
    143  O         13.2420   37.6660   55.1970 O.2   186  GLN186     -0.2864
    144  CB        14.7660   40.6500   55.6530 C.3   186  GLN186      0.0394
    145  CG        16.0670   40.0090   55.3730 C.3   186  GLN186      0.0908
    146  CD        16.0300   38.5480   55.6260 C.2   186  GLN186      0.2608
    147  OE1       15.8590   38.1300   56.7370 O.2   186  GLN186     -0.2717
    148  NE2       16.1840   37.7640   54.5980 N.am  186  GLN186     -0.0878
    149  N         13.3990   38.1510   50.9150 N.3   191  TRP191     -0.1227
    150  CA        13.7360   38.8150   49.6640 C.3   191  TRP191      0.1737
    151  C         15.0290   38.2980   49.0890 C.2   191  TRP191      0.2596
    152  O         15.0870   37.9650   47.9110 O.2   191  TRP191     -0.2718
    153  CB        13.9150   40.2850   49.9200 C.3   191  TRP191      0.0564
    154  CG        13.2490   41.2490   49.0150 C.ar  191  TRP191      0.0003
    155  CD1       13.2530   42.5880   49.1720 C.ar  191  TRP191      0.0946
    156  CD2       12.5300   40.9910   47.8170 C.ar  191  TRP191      0.0152
    157  NE1       12.5920   43.2000   48.1530 N.ar  191  TRP191     -0.2442
    158  CE2       12.1330   42.2440   47.2990 C.ar  191  TRP191      0.0810
    159  CE3       12.1810   39.8340   47.1250 C.ar  191  TRP191      0.0012
    160  CZ2       11.4100   42.3780   46.1240 C.ar  191  TRP191      0.0191
    161  CZ3       11.4550   39.9640   45.9470 C.ar  191  TRP191      0.0001
    162  CH2       11.0780   41.2330   45.4590 C.ar  191  TRP191      0.0015
    163  N         16.0780   38.2820   49.9050 N.am  192  THR192     -0.1953
    164  CA        17.3700   37.7840   49.4720 C.3   192  THR192      0.1897
    165  C         17.2070   36.5890   48.5460 C.2   192  THR192      0.2313
    166  O         17.6120   36.6640   47.4050 O.2   192  THR192     -0.2863
    167  CB        18.1840   37.3420   50.6430 C.3   192  THR192      0.1794
    168  OG1       17.6900   36.0800   51.1340 O.3   192  THR192     -0.2208
    169  CG2       18.0970   38.4150   51.7350 C.3   192  THR192      0.0378
    170  N         14.9140   40.2330   42.8460 N.3   197  HIS197     -0.1241
    171  CA        15.3740   41.4460   43.4730 C.3   197  HIS197      0.1621
    172  C         16.8690   41.4340   43.4220 C.2   197  HIS197      0.2264
    173  O         17.5510   42.4320   43.1500 O.2   197  HIS197     -0.2867
    174  CB        14.8580   41.4820   44.8960 C.3   197  HIS197      0.0745
    175  CG        15.6860   42.3360   45.8650 C.ar  197  HIS197      0.0817
    176  ND1       16.9110   41.9990   46.3970 N.ar  197  HIS197     -0.2268
    177  CD2       15.3680   43.5450   46.3880 C.ar  197  HIS197      0.1154
    178  CE1       17.3110   42.9560   47.2140 C.ar  197  HIS197      0.1986
    179  NE2       16.3930   43.9050   47.2270 N.ar  197  HIS197     -0.2212
    180  N         17.6430   43.1920   40.5970 N.3   200  GLY200     -0.1210
    181  CA        17.5320   44.6080   40.8670 C.3   200  GLY200      0.1956
    182  C         18.8000   45.1140   41.4900 C.2   200  GLY200      0.2611
    183  O         19.4830   45.9530   40.9420 O.2   200  GLY200     -0.2717
    184  N         19.1360   44.5770   42.6440 N.am  201  VAL201     -0.1979
    185  CA        20.3420   45.0020   43.3390 C.3   201  VAL201      0.1595
    186  C         21.4710   45.1920   42.3560 C.2   201  VAL201      0.2287
    187  O         22.0870   46.2490   42.2900 O.2   201  VAL201     -0.2864
    188  CB        20.8050   43.9570   44.3660 C.3   201  VAL201      0.0276
    189  CG1       22.0170   44.4680   45.1250 C.3   201  VAL201      0.0022
    190  CG2       19.6730   43.6210   45.2920 C.3   201  VAL201      0.0022
    191  N         20.9260   48.5890   40.3880 N.3   204  VAL204     -0.1231
    192  CA        21.1210   49.8060   41.1430 C.3   204  VAL204      0.1692
    193  C         22.5640   49.9500   41.5700 C.2   204  VAL204      0.2591
    194  O         23.2120   50.9310   41.2580 O.2   204  VAL204     -0.2718
    195  CB        20.2010   49.8280   42.3580 C.3   204  VAL204      0.0266
    196  CG1       20.5160   51.0290   43.2450 C.3   204  VAL204      0.0020
    197  CG2       18.7710   49.8920   41.8920 C.3   204  VAL204      0.0020
    198  N         23.0770   48.9620   42.2760 N.am  205  LEU205     -0.1980
    199  CA        24.4550   48.9930   42.7280 C.3   205  LEU205      0.1596
    200  C         25.3900   49.1810   41.5270 C.2   205  LEU205      0.2287
    201  O         26.3720   49.9050   41.6100 O.2   205  LEU205     -0.2864
    202  CB        24.7450   47.6820   43.4440 C.3   205  LEU205      0.0297
    203  CG        26.0240   47.4100   44.1990 C.3   205  LEU205      0.0022
    204  CD1       26.2130   48.3850   45.2990 C.3   205  LEU205      0.0001
    205  CD2       25.9120   46.0470   44.7690 C.3   205  LEU205      0.0001
    206  N         15.2260   47.8300   37.8360 N.3   279  LEU279     -0.1245
    207  CA        14.0470   48.1740   38.6120 C.3   279  LEU279      0.1561
    208  C         12.8330   47.4650   38.0390 C.2   279  LEU279      0.2260
    209  O         11.9050   47.1380   38.7700 O.2   279  LEU279     -0.2867
    210  CB        13.7720   49.6700   38.5540 C.3   279  LEU279      0.0270
    211  CG        14.7190   50.7380   39.0630 C.3   279  LEU279      0.0019
    212  CD1       13.9480   52.0470   39.0630 C.3   279  LEU279      0.0001
    213  CD2       15.1810   50.4320   40.4410 C.3   279  LEU279      0.0001
    214  N         13.3640   43.8470   39.3170 N.3   282  SER282     -0.1202
    215  CA        12.9880   43.7840   40.7030 C.3   282  SER282      0.2020
    216  C         11.5570   44.1860   40.8890 C.2   282  SER282      0.2618
    217  O         10.9630   43.8760   41.9010 O.2   282  SER282     -0.2717
    218  CB        13.8510   44.7060   41.5360 C.3   282  SER282      0.2103
    219  OG        13.3740   46.0290   41.4350 O.3   282  SER282     -0.2182
    220  N         10.9840   44.8920   39.9320 N.am  283  ALA283     -0.1979
    221  CA         9.6080   45.3080   40.1200 C.3   283  ALA283      0.1597
    222  C          8.7150   44.1170   39.9900 C.2   283  ALA283      0.2287
    223  O          7.7790   43.9590   40.7540 O.2   283  ALA283     -0.2864
    224  CB         9.2250   46.3330   39.1100 C.3   283  ALA283      0.0319
    225  N          8.5320   41.9860   43.1840 N.3   286  VAL286     -0.1245
    226  CA         7.5740   42.2880   44.2380 C.3   286  VAL286      0.1561
    227  C          6.1520   42.0500   43.7910 C.2   286  VAL286      0.2260
    228  O          5.2950   41.6930   44.5730 O.2   286  VAL286     -0.2867
    229  CB         7.6790   43.7450   44.7030 C.3   286  VAL286      0.0252
    230  CG1        6.6520   44.0070   45.7910 C.3   286  VAL286      0.0019
    231  CG2        9.0800   44.0420   45.2020 C.3   286  VAL286      0.0019
@<TRIPOS>BOND
     1    42    43    1
     2    46    43    1
     3    46    47    1
     4    43    44    1
     5    44    45    2
     6    47    49   ar
     7    47    48   ar
     8    49    51   ar
     9    48    50   ar
    10    37    36    2
    11    51    52   ar
    12    59    53    1
    13    59    58    1
    14    36    35    1
    15    53    54    1
    16    50    52   ar
    17   206   207    1
    18   208   207    1
    19   208   209    2
    20    58    57    1
    21   210   207    1
    22   210   211    1
    23    35    38    1
    24    35    34    1
    25    54    57    1
    26    54    55    1
    27    55    56    2
    28   212   211    1
    29   211   213    1
    30   224   221    1
    31   214   215    1
    32    38    39    1
    33    60    61    1
    34   220   221    1
    35   220   216   am
    36   222   221    1
    37   222   223    2
    38   191   192    1
    39    41    39    1
    40   180   181    1
    41   215   216    1
    42   215   218    1
    43    39    40    1
    44    66    64    1
    45   181   182    1
    46   216   217    2
    47   183   182    2
    48   192   193    1
    49   192   195    1
    50   194   193    2
    51    61    64    1
    52    61    62    1
    53   219   218    1
    54   182   184   am
    55   200   201    2
    56   200   199    1
    57   193   198   am
    58    64    65    1
    59    67    62   am
    60    67    68    1
    61   197   195    1
    62    78    79    1
    63    62    63    2
    64    82    83    1
    65    82    79    1
    66   198   199    1
    67   187   186    2
    68   186   185    1
    69   195   196    1
    70    71    68    1
    71    71    72    1
    72    73    72   ar
    73    73    75   ar
    74    69    68    1
    75    69    70    2
    76   184   185    1
    77    79    80    1
    78   199   202    1
    79   170   171    1
    80   173   172    2
    81    72    74   ar
    82   225   226    1
    83    75    77   ar
    84   185   188    1
    85   172   171    1
    86   202   203    1
    87   171   174    1
    88   227   226    1
    89   227   228    2
    90   203   205    1
    91   203   204    1
    92   226   229    1
    93    80    84   am
    94    80    81    2
    95   188   189    1
    96   188   190    1
    97    74    76   ar
    98    77    76   ar
    99   229   231    1
   100   229   230    1
   101    84    85    1
   102   174   175    1
   103   162   161   ar
   104   162   160   ar
   105   175   177   ar
   106   175   176   ar
   107   161   159   ar
   108   160   158   ar
   109    91    92    1
   110    91    86   am
   111    90    88    1
   112    85    88    1
   113    85    86    1
   114   177   179   ar
   115   176   178   ar
   116    93    92    1
   117    93    94    2
   118    97    99   ar
   119    97    96   ar
   120    95    92    1
   121    95    96    1
   122    88    89    1
   123    86    87    2
   124   159   156   ar
   125    99   101   ar
   126    96    98   ar
   127   178   179   ar
   128   158   156   ar
   129   158   157   ar
   130   166   165    2
   131     7     6    1
   132   156   154   ar
   133   152   151    2
   134   157   155   ar
   135     1     2    1
   136     5     6    1
   137     5     2    1
   138   101   100   ar
   139    98   100   ar
   140   165   164    1
   141     6     8    1
   142     2     3    1
   143   154   155   ar
   144   154   153    1
   145   151   150    1
   146   151   163   am
   147   164   163    1
   148   164   167    1
   149   150   153    1
   150   150   149    1
   151   138   139   ar
   152   138   136   ar
   153     3     4    2
   154   139   137   ar
   155   167   168    1
   156   167   169    1
   157   136   134   ar
   158   110   112   ar
   159   110   108   ar
   160   112   111   ar
   161   137   135   ar
   162   134   135   ar
   163   134   133    1
   164   108   107   ar
   165   120   118    1
   166   111   109   ar
   167   133   130    1
   168    13    14    1
   169    13    10    1
   170     9    10    1
   171   107   109   ar
   172   107   106    1
   173    19    16   ar
   174    19    21   ar
   175    14    16   ar
   176    14    15   ar
   177    10    11    1
   178   118   119    1
   179   118   117    1
   180    16    18   ar
   181   130   131    1
   182   130   129    1
   183    21    22   ar
   184   132   131    2
   185   131   140   am
   186    15    17   ar
   187   148   146   am
   188   106   103    1
   189   140   141    1
   190   114   117    1
   191   114   113    1
   192   114   115    1
   193   105   104    2
   194   141   144    1
   195   141   142    1
   196    11    12    2
   197    18    17   ar
   198    18    20   ar
   199   116   115    2
   200    22    20   ar
   201   113   104   am
   202   104   103    1
   203   143   142    2
   204   145   146    1
   205   145   144    1
   206   115   121   am
   207   146   147    2
   208   103   102    1
   209    33    31   ar
   210    33    32   ar
   211   121   122    1
   212    31    29   ar
   213   124   123    2
   214    32    30   ar
   215   123   122    1
   216   122   125    1
   217    29    28   ar
   218    30    28   ar
   219   128   126    1
   220   125   126    1
   221    28    27    1
   222   126   127    1
   223    26    25    2
   224    27    24    1
   225    25    24    1
   226    24    23    1
