@<TRIPOS>MOLECULE
tmp/1w5cD03.pdb
 132 132 0 0 0
SMALL
GASTEIGER

@<TRIPOS>ATOM
      1  N          2.2310   64.7280   53.0800 N.3    48  TRP48      -0.1241
      2  CA         3.2350   64.0560   53.8890 C.3    48  TRP48       0.1605
      3  C          3.7860   64.9320   55.0040 C.2    48  TRP48       0.2264
      4  O          3.9280   64.4840   56.1480 O.2    48  TRP48      -0.2867
      5  CB         4.3950   63.5650   53.0230 C.3    48  TRP48       0.0550
      6  CG         5.5090   62.9600   53.8380 C.ar   48  TRP48       0.0003
      7  CD1        5.4880   61.7690   54.5120 C.ar   48  TRP48       0.0946
      8  CD2        6.7730   63.5650   54.1420 C.ar   48  TRP48       0.0152
      9  NE1        6.6530   61.6010   55.2180 N.ar   48  TRP48      -0.2442
     10  CE2        7.4580   62.6870   55.0090 C.ar   48  TRP48       0.0810
     11  CE3        7.3940   64.7700   53.7670 C.ar   48  TRP48       0.0012
     12  CZ2        8.7250   62.9760   55.5030 C.ar   48  TRP48       0.0191
     13  CZ3        8.6510   65.0540   54.2580 C.ar   48  TRP48       0.0001
     14  CH2        9.3040   64.1660   55.1170 C.ar   48  TRP48       0.0015
     15  N         12.3350   63.4510   62.3910 N.3    73  PHE73      -0.1227
     16  CA        12.6610   63.0970   61.0080 C.3    73  PHE73       0.1736
     17  C         12.6180   61.5980   60.7400 C.2    73  PHE73       0.2595
     18  O         11.7330   61.0890   60.0430 O.2    73  PHE73      -0.2718
     19  CB        14.0500   63.5970   60.6340 C.3    73  PHE73       0.0547
     20  CG        14.3970   63.3690   59.1930 C.ar   73  PHE73      -0.0202
     21  CD1       14.0280   64.2860   58.2340 C.ar   73  PHE73      -0.0042
     22  CD2       15.0850   62.2390   58.7880 C.ar   73  PHE73      -0.0042
     23  CE1       14.3410   64.0870   56.8740 C.ar   73  PHE73      -0.0003
     24  CE2       15.3980   62.0370   57.4270 C.ar   73  PHE73      -0.0003
     25  CZ        15.0230   62.9670   56.4770 C.ar   73  PHE73      -0.0000
     26  N         13.6090   60.9020   61.2810 N.am   74  LEU74      -0.1980
     27  CA        13.7070   59.4740   61.1270 C.3    74  LEU74       0.1596
     28  C         12.4730   58.7840   61.7050 C.2    74  LEU74       0.2287
     29  O         11.7230   58.1830   60.9720 O.2    74  LEU74      -0.2864
     30  CB        14.9780   58.9960   61.8170 C.3    74  LEU74       0.0297
     31  CG        16.2550   59.6770   61.3420 C.3    74  LEU74       0.0022
     32  CD1       17.4110   59.2300   62.1840 C.3    74  LEU74       0.0001
     33  CD2       16.4850   59.3380   59.9060 C.3    74  LEU74       0.0001
     34  N          8.7980   50.7150   39.8930 N.3   152  VAL152     -0.1231
     35  CA         9.2110   50.4580   41.2720 C.3   152  VAL152      0.1692
     36  C          8.1580   51.0110   42.2060 C.2   152  VAL152      0.2592
     37  O          7.8370   50.4080   43.2030 O.2   152  VAL152     -0.2718
     38  CB        10.5140   51.1620   41.6230 C.3   152  VAL152      0.0266
     39  CG1       10.7640   51.0270   43.0950 C.3   152  VAL152      0.0020
     40  CG2       11.6660   50.6020   40.8010 C.3   152  VAL152      0.0020
     41  N          7.6140   52.1650   41.8640 N.am  153  PHE153     -0.1976
     42  CA         6.6060   52.7840   42.7000 C.3   153  PHE153      0.1639
     43  C          5.2000   52.2200   42.6250 C.2   153  PHE153      0.2290
     44  O          4.4470   52.3700   43.5730 O.2   153  PHE153     -0.2864
     45  CB         6.5220   54.2840   42.4340 C.3   153  PHE153      0.0560
     46  CG         5.3920   54.9560   43.1770 C.ar  153  PHE153     -0.0200
     47  CD1        4.1140   55.0540   42.6160 C.ar  153  PHE153     -0.0042
     48  CD2        5.5910   55.4380   44.4690 C.ar  153  PHE153     -0.0042
     49  CE1        3.0620   55.6200   43.3340 C.ar  153  PHE153     -0.0003
     50  CE2        4.5340   56.0020   45.1960 C.ar  153  PHE153     -0.0003
     51  CZ         3.2760   56.0920   44.6290 C.ar  153  PHE153     -0.0000
     52  N          5.2000   48.5310   44.8530 N.3   156  VAL156     -0.1231
     53  CA         5.2850   48.7020   46.2900 C.3   156  VAL156      0.1692
     54  C          4.2320   49.5880   46.9210 C.2   156  VAL156      0.2592
     55  O          4.0490   49.5740   48.1320 O.2   156  VAL156     -0.2718
     56  CB         6.6580   49.2610   46.6670 C.3   156  VAL156      0.0266
     57  CG1        6.7580   49.5220   48.1550 C.3   156  VAL156      0.0020
     58  CG2        7.7110   48.2870   46.2600 C.3   156  VAL156      0.0020
     59  N          3.5230   50.3760   46.1440 N.am  157  PHE157     -0.1976
     60  CA         2.5530   51.2040   46.8000 C.3   157  PHE157      0.1639
     61  C          1.1590   50.9110   46.4120 C.2   157  PHE157      0.2290
     62  O          0.2710   51.0750   47.2180 O.2   157  PHE157     -0.2864
     63  CB         2.9180   52.6430   46.5970 C.3   157  PHE157      0.0560
     64  CG         4.2400   52.9910   47.2090 C.ar  157  PHE157     -0.0200
     65  CD1        5.4270   52.7280   46.5450 C.ar  157  PHE157     -0.0042
     66  CD2        4.3050   53.5250   48.4850 C.ar  157  PHE157     -0.0042
     67  CE1        6.6640   52.9920   47.1490 C.ar  157  PHE157     -0.0003
     68  CE2        5.5340   53.7900   49.0880 C.ar  157  PHE157     -0.0003
     69  CZ         6.7140   53.5180   48.4080 C.ar  157  PHE157     -0.0000
     70  N          4.4030   50.4770   52.5980 N.3   171  PRO171     -0.2116
     71  CA         5.2610   51.2750   53.4690 C.3   171  PRO171      0.1372
     72  C          4.5330   52.5290   53.9480 C.2   171  PRO171      0.2244
     73  O          3.6800   53.0430   53.2510 O.2   171  PRO171     -0.2868
     74  CB         6.4650   51.5560   52.5810 C.3   171  PRO171      0.0268
     75  CG         6.5230   50.3180   51.7220 C.3   171  PRO171      0.0207
     76  CD         5.0810   50.0980   51.3600 C.3   171  PRO171      0.0892
     77  N          5.4410   55.6190   54.2190 N.3   173  PHE173     -0.1241
     78  CA         5.9540   56.9210   53.8420 C.3   173  PHE173      0.1605
     79  C          6.7270   57.4400   55.0190 C.2   173  PHE173      0.2264
     80  O          6.5750   58.6050   55.3720 O.2   173  PHE173     -0.2867
     81  CB         4.8080   57.8960   53.5610 C.3   173  PHE173      0.0534
     82  CG         4.1800   57.7060   52.2330 C.ar  173  PHE173     -0.0203
     83  CD1        4.8320   58.1410   51.1040 C.ar  173  PHE173     -0.0042
     84  CD2        2.9680   57.0410   52.0980 C.ar  173  PHE173     -0.0042
     85  CE1        4.2980   57.9150   49.8620 C.ar  173  PHE173     -0.0003
     86  CE2        2.4260   56.8110   50.8570 C.ar  173  PHE173     -0.0003
     87  CZ         3.0900   57.2460   49.7370 C.ar  173  PHE173     -0.0000
     88  N         10.6580   57.6180   57.0160 N.3   175  VAL175     -0.1245
     89  CA        12.0920   57.3880   56.9350 C.3   175  VAL175      0.1561
     90  C         12.4260   56.0600   57.5730 C.2   175  VAL175      0.2260
     91  O         13.0710   55.2230   56.9640 O.2   175  VAL175     -0.2867
     92  CB        12.8710   58.4510   57.7070 C.3   175  VAL175      0.0252
     93  CG1       14.1910   57.8740   58.1920 C.3   175  VAL175      0.0019
     94  CG2       13.0980   59.6660   56.8330 C.3   175  VAL175      0.0019
     95  N         10.2750   52.6110   56.7940 N.3   178  ILE178     -0.1231
     96  CA        10.5580   51.9370   55.5490 C.3   178  ILE178      0.1692
     97  C         11.4580   50.8090   55.9100 C.2   178  ILE178      0.2592
     98  O         11.4430   49.7520   55.3100 O.2   178  ILE178     -0.2718
     99  CB        11.2630   52.8590   54.5760 C.3   178  ILE178      0.0266
    100  CG1       10.2480   53.8020   53.9360 C.3   178  ILE178      0.0019
    101  CG2       11.9190   52.0590   53.5040 C.3   178  ILE178      0.0020
    102  CD1       10.9060   54.8890   53.1030 C.3   178  ILE178      0.0001
    103  N         12.2430   51.0480   56.9290 N.am  179  PHE179     -0.1976
    104  CA        13.1650   50.0540   57.3880 C.3   179  PHE179      0.1639
    105  C         12.3930   48.8620   57.9290 C.2   179  PHE179      0.2290
    106  O         12.8070   47.7240   57.7320 O.2   179  PHE179     -0.2864
    107  CB        14.0560   50.6820   58.4500 C.3   179  PHE179      0.0560
    108  CG        14.9180   51.8120   57.9260 C.ar  179  PHE179     -0.0200
    109  CD1       15.8750   51.5730   56.9620 C.ar  179  PHE179     -0.0042
    110  CD2       14.8060   53.0980   58.4340 C.ar  179  PHE179     -0.0042
    111  CE1       16.7100   52.5910   56.5210 C.ar  179  PHE179     -0.0003
    112  CE2       15.6400   54.1250   57.9930 C.ar  179  PHE179     -0.0003
    113  CZ        16.5890   53.8620   57.0400 C.ar  179  PHE179     -0.0000
    114  N          9.6270   47.9380   56.8980 N.3   181  PHE181     -0.1227
    115  CA         9.1950   47.3050   55.6670 C.3   181  PHE181      0.1736
    116  C         10.3270   46.4300   55.1830 C.2   181  PHE181      0.2595
    117  O         10.1280   45.2840   54.8450 O.2   181  PHE181     -0.2718
    118  CB         8.8900   48.3730   54.6250 C.3   181  PHE181      0.0547
    119  CG         8.0300   47.8930   53.5050 C.ar  181  PHE181     -0.0202
    120  CD1        8.5510   47.7160   52.2320 C.ar  181  PHE181     -0.0042
    121  CD2        6.6960   47.5710   53.7360 C.ar  181  PHE181     -0.0042
    122  CE1        7.7540   47.2190   51.2020 C.ar  181  PHE181     -0.0003
    123  CE2        5.8970   47.0740   52.7210 C.ar  181  PHE181     -0.0003
    124  CZ         6.4240   46.8970   51.4500 C.ar  181  PHE181     -0.0000
    125  N         11.5320   46.9870   55.1440 N.am  182  LEU182     -0.1980
    126  CA        12.7030   46.2330   54.7190 C.3   182  LEU182      0.1596
    127  C         12.7970   44.9630   55.5370 C.2   182  LEU182      0.2287
    128  O         12.5940   43.8590   55.0370 O.2   182  LEU182     -0.2864
    129  CB        13.9740   47.0390   54.9340 C.3   182  LEU182      0.0297
    130  CG        14.1060   48.2890   54.0930 C.3   182  LEU182      0.0022
    131  CD1       15.2880   49.0800   54.5670 C.3   182  LEU182      0.0001
    132  CD2       14.2570   47.9160   52.6510 C.3   182  LEU182      0.0001
@<TRIPOS>BOND
     1    34    35    1
     2    40    38    1
     3    35    38    1
     4    35    36    1
     5    38    39    1
     6    41    36   am
     7    41    42    1
     8    36    37    2
     9    45    42    1
    10    45    46    1
    11    47    46   ar
    12    47    49   ar
    13    43    42    1
    14    43    44    2
    15    46    48   ar
    16    49    51   ar
    17    48    50   ar
    18    51    50   ar
    19    52    53    1
    20    59    60    1
    21    59    54   am
    22    58    56    1
    23    53    56    1
    24    53    54    1
    25    61    60    1
    26    61    62    2
    27    65    67   ar
    28    65    64   ar
    29    63    60    1
    30    63    64    1
    31    56    57    1
    32    54    55    2
    33    67    69   ar
    34    64    66   ar
    35    69    68   ar
    36    66    68   ar
    37    87    85   ar
    38    87    86   ar
    39    85    83   ar
    40    86    84   ar
    41    83    82   ar
    42   122   124   ar
    43   122   120   ar
    44    76    75    1
    45    76    70    1
    46   124   123   ar
    47    75    74    1
    48    84    82   ar
    49   120   119   ar
    50    82    81    1
    51    74    71    1
    52    70    71    1
    53   132   130    1
    54   123   121   ar
    55     5     6    1
    56     5     2    1
    57     1     2    1
    58   102   100    1
    59    73    72    2
    60    71    72    1
    61   101    99    1
    62   119   121   ar
    63   119   118    1
    64    81    78    1
    65    11     8   ar
    66    11    13   ar
    67     6     8   ar
    68     6     7   ar
    69    78    77    1
    70    78    79    1
    71     2     3    1
    72   100    99    1
    73   130   131    1
    74   130   129    1
    75     8    10   ar
    76    13    14   ar
    77     7     9   ar
    78    99    96    1
    79   118   115    1
    80   126   129    1
    81   126   125    1
    82   126   127    1
    83   117   116    2
    84     3     4    2
    85    10     9   ar
    86    10    12   ar
    87    79    80    2
    88   128   127    2
    89    14    12   ar
    90   125   116   am
    91   116   115    1
    92    98    97    2
    93    96    97    1
    94    96    95    1
    95   115   114    1
    96    97   103   am
    97    25    23   ar
    98    25    24   ar
    99   111   109   ar
   100   111   113   ar
   101    94    92    1
   102    23    21   ar
   103   103   104    1
   104    89    88    1
   105    89    90    1
   106    89    92    1
   107   109   108   ar
   108    91    90    2
   109   113   112   ar
   110   104   105    1
   111   104   107    1
   112    24    22   ar
   113    92    93    1
   114   106   105    2
   115   108   110   ar
   116   108   107    1
   117   112   110   ar
   118    21    20   ar
   119    22    20   ar
   120    20    19    1
   121    33    31    1
   122    18    17    2
   123    19    16    1
   124    17    16    1
   125    17    26   am
   126    29    28    2
   127    16    15    1
   128    27    26    1
   129    27    28    1
   130    27    30    1
   131    31    30    1
   132    31    32    1
