@<TRIPOS>MOLECULE
tmp/1w5cI01.pdb
 105 100 0 0 0
SMALL
GASTEIGER

@<TRIPOS>ATOM
      1  N         -3.6540  -16.9550  -35.7130 N.3    30  LEU30      -0.1245
      2  CA        -4.7110  -17.9590  -35.6650 C.3    30  LEU30       0.1561
      3  C         -4.2070  -19.2280  -35.0070 C.2    30  LEU30       0.2260
      4  O         -4.6730  -19.6210  -33.9300 O.2    30  LEU30      -0.2867
      5  CB        -5.2740  -18.2780  -37.0320 C.3    30  LEU30       0.0270
      6  CG        -6.6830  -18.8080  -36.9880 C.3    30  LEU30       0.0019
      7  CD1       -7.6810  -17.6800  -36.7310 C.3    30  LEU30       0.0001
      8  CD2       -7.0270  -19.5450  -38.2840 C.3    30  LEU30       0.0001
      9  N         -2.7000  -19.1900  -31.7420 N.3    33  HIS33      -0.1226
     10  CA        -3.8570  -19.3110  -30.8830 C.3    33  HIS33       0.1752
     11  C         -4.4540  -20.7140  -30.9640 C.2    33  HIS33       0.2595
     12  O         -4.9070  -21.2670  -29.9650 O.2    33  HIS33      -0.2718
     13  CB        -4.8820  -18.2220  -31.2350 C.3    33  HIS33       0.0759
     14  CG        -4.5950  -16.8730  -30.5550 C.ar   33  HIS33       0.0818
     15  ND1       -4.1220  -15.7610  -31.2200 N.ar   33  HIS33      -0.2268
     16  CD2       -4.7010  -16.5070  -29.2530 C.ar   33  HIS33       0.1154
     17  CE1       -3.9410  -14.7740  -30.3560 C.ar   33  HIS33       0.1986
     18  NE2       -4.2820  -15.2000  -29.1540 N.ar   33  HIS33      -0.2212
     19  N         -4.4770  -21.3070  -32.1520 N.am   34  VAL34      -0.1980
     20  CA        -5.0490  -22.6630  -32.2780 C.3    34  VAL34       0.1595
     21  C         -4.2320  -23.6760  -31.4790 C.2    34  VAL34       0.2287
     22  O         -4.7500  -24.2830  -30.5340 O.2    34  VAL34      -0.2864
     23  CB        -5.0810  -23.1760  -33.7230 C.3    34  VAL34       0.0276
     24  CG1       -5.7460  -24.5230  -33.7560 C.3    34  VAL34       0.0022
     25  CG2       -5.8160  -22.2190  -34.6080 C.3    34  VAL34       0.0022
     26  N         -4.2830  -23.4520  -27.7930 N.3    37  ALA37      -0.1245
     27  CA        -5.5620  -23.9840  -27.4080 C.3    37  ALA37       0.1562
     28  C         -5.3510  -25.4670  -27.1800 C.2    37  ALA37       0.2260
     29  O         -5.2810  -25.9210  -26.0390 O.2    37  ALA37      -0.2867
     30  CB        -6.5520  -23.7680  -28.4950 C.3    37  ALA37       0.0290
     31  N         -6.5300  -30.2530  -32.8610 N.3   105  LEU105     -0.1245
     32  CA        -6.2080  -28.8580  -32.8380 C.3   105  LEU105      0.1561
     33  C         -4.7910  -28.7730  -33.3500 C.2   105  LEU105      0.2260
     34  O         -4.5510  -28.2130  -34.4270 O.2   105  LEU105     -0.2867
     35  CB        -6.3320  -28.3180  -31.4220 C.3   105  LEU105      0.0270
     36  CG        -7.7920  -28.2750  -30.9590 C.3   105  LEU105      0.0019
     37  CD1       -7.9010  -27.7910  -29.5430 C.3   105  LEU105      0.0001
     38  CD2       -8.5600  -27.3490  -31.8600 C.3   105  LEU105      0.0001
     39  N        -13.9840  -12.7420  -45.3560 N.3   124  SER124     -0.1202
     40  CA       -14.6550  -12.1670  -44.1870 C.3   124  SER124      0.2020
     41  C        -14.1860  -12.6900  -42.8330 C.2   124  SER124      0.2619
     42  O        -14.6500  -12.1500  -41.7980 O.2   124  SER124     -0.2717
     43  CB       -16.2410  -12.2260  -44.5430 C.3   124  SER124      0.2103
     44  OG       -17.0390  -11.7800  -43.5650 O.3   124  SER124     -0.2182
     45  N        -13.3090  -13.6990  -42.9080 N.am  125  SER125     -0.1951
     46  CA       -12.7590  -14.2780  -41.6740 C.3   125  SER125      0.1924
     47  C        -11.6470  -13.4380  -41.0490 C.2   125  SER125      0.2314
     48  O        -11.4080  -13.5010  -39.8360 O.2   125  SER125     -0.2863
     49  CB       -12.1980  -15.6570  -41.9450 C.3   125  SER125      0.2116
     50  OG       -11.7170  -16.2780  -40.7720 O.3   125  SER125     -0.2180
     51  N         -9.6040  -10.1880  -39.6810 N.3   127  PHE127     -0.1241
     52  CA       -10.0060   -9.4890  -38.4770 C.3   127  PHE127      0.1605
     53  C         -9.0230   -8.3700  -38.1060 C.2   127  PHE127      0.2264
     54  O         -8.2420   -8.4660  -37.1600 O.2   127  PHE127     -0.2867
     55  CB       -10.1680  -10.4600  -37.2610 C.3   127  PHE127      0.0534
     56  CG        -8.9330  -11.1670  -36.7920 C.ar  127  PHE127     -0.0203
     57  CD1       -8.4960  -12.3770  -37.3220 C.ar  127  PHE127     -0.0042
     58  CD2       -8.1530  -10.6420  -35.7180 C.ar  127  PHE127     -0.0042
     59  CE1       -7.3740  -13.0370  -36.8370 C.ar  127  PHE127     -0.0003
     60  CE2       -7.0350  -11.2660  -35.2650 C.ar  127  PHE127     -0.0003
     61  CZ        -6.6510  -12.4770  -35.7810 C.ar  127  PHE127     -0.0000
     62  N        -17.1110  -10.5200  -33.6540 N.3   140  ILE140     -0.1245
     63  CA       -16.3780  -11.7580  -33.3930 C.3   140  ILE140      0.1561
     64  C        -16.6060  -12.1310  -31.9210 C.2   140  ILE140      0.2260
     65  O        -17.0810  -13.2270  -31.5790 O.2   140  ILE140     -0.2867
     66  CB       -14.8690  -11.5400  -33.6640 C.3   140  ILE140      0.0252
     67  CG1      -14.6890  -10.9580  -35.0590 C.3   140  ILE140      0.0019
     68  CG2      -14.0840  -12.8730  -33.6060 C.3   140  ILE140      0.0019
     69  CD1      -13.4050  -10.1960  -35.1890 C.3   140  ILE140      0.0001
     70  N        -19.8520  -13.2050  -31.5150 N.3   143  PHE143     -0.1227
     71  CA       -20.0220  -14.5160  -32.1360 C.3   143  PHE143      0.1736
     72  C        -19.4540  -15.6070  -31.2160 C.2   143  PHE143      0.2595
     73  O        -19.7010  -16.8060  -31.4190 O.2   143  PHE143     -0.2718
     74  CB       -19.3230  -14.5580  -33.4990 C.3   143  PHE143      0.0547
     75  CG       -20.2710  -14.5830  -34.6540 C.ar  143  PHE143     -0.0202
     76  CD1      -21.0290  -15.7250  -34.9120 C.ar  143  PHE143     -0.0042
     77  CD2      -20.4310  -13.4530  -35.4730 C.ar  143  PHE143     -0.0042
     78  CE1      -21.9470  -15.7500  -35.9820 C.ar  143  PHE143     -0.0003
     79  CE2      -21.3460  -13.4550  -36.5450 C.ar  143  PHE143     -0.0003
     80  CZ       -22.1070  -14.6060  -36.8050 C.ar  143  PHE143     -0.0000
     81  N        -18.6900  -15.1710  -30.2110 N.am  144  HIS144     -0.1975
     82  CA       -18.0840  -16.0640  -29.2300 C.3   144  HIS144      0.1656
     83  C        -18.9630  -16.1880  -27.9830 C.2   144  HIS144      0.2291
     84  O        -19.1140  -17.2860  -27.4570 O.2   144  HIS144     -0.2864
     85  CB       -16.6680  -15.5730  -28.8590 C.3   144  HIS144      0.0771
     86  CG       -15.5770  -16.1330  -29.7260 C.ar  144  HIS144      0.0820
     87  ND1      -14.3840  -15.4770  -29.9420 N.ar  144  HIS144     -0.2267
     88  CD2      -15.4800  -17.3070  -30.4000 C.ar  144  HIS144      0.1154
     89  CE1      -13.6030  -16.2210  -30.7110 C.ar  144  HIS144      0.1986
     90  NE2      -14.2430  -17.3370  -31.0020 N.ar  144  HIS144     -0.2212
     91  N        -21.6910  -16.6120  -27.7080 N.3   146  ILE146     -0.1231
     92  CA       -22.6530  -17.6590  -28.0000 C.3   146  ILE146      0.1692
     93  C        -22.0150  -18.9820  -27.5710 C.2   146  ILE146      0.2591
     94  O        -22.5970  -19.7590  -26.8060 O.2   146  ILE146     -0.2718
     95  CB       -22.9770  -17.6320  -29.4960 C.3   146  ILE146      0.0266
     96  CG1      -23.7540  -16.3380  -29.7820 C.3   146  ILE146      0.0019
     97  CG2      -23.7320  -18.9040  -29.9150 C.3   146  ILE146      0.0020
     98  CD1      -23.9170  -15.9890  -31.2320 C.3   146  ILE146      0.0001
     99  N        -20.7920  -19.1940  -28.0460 N.am  147  VAL147     -0.1980
    100  CA       -20.0090  -20.3780  -27.7280 C.3   147  VAL147      0.1595
    101  C        -19.9140  -20.4060  -26.2280 C.2   147  VAL147      0.2287
    102  O        -20.3300  -21.3680  -25.5800 O.2   147  VAL147     -0.2864
    103  CB       -18.6010  -20.2510  -28.2650 C.3   147  VAL147      0.0276
    104  CG1      -18.0020  -21.6200  -28.4950 C.3   147  VAL147      0.0022
    105  CG2      -18.6130  -19.4090  -29.5260 C.3   147  VAL147      0.0022
@<TRIPOS>BOND
     1    39    40    1
     2    43    40    1
     3    43    44    1
     4    40    41    1
     5    45    41   am
     6    45    46    1
     7    41    42    2
     8    49    46    1
     9    49    50    1
    10    46    47    1
    11    47    48    2
    12    51    52    1
    13    52    53    1
    14    52    55    1
    15     8     6    1
    16    53    54    2
    17    57    59   ar
    18    57    56   ar
    19    55    56    1
    20     5     6    1
    21     5     2    1
    22     6     7    1
    23    59    61   ar
    24    80    79   ar
    25    80    78   ar
    26    56    58   ar
    27    79    77   ar
    28    78    76   ar
    29    61    60   ar
    30    58    60   ar
    31     1     2    1
    32     2     3    1
    33    77    75   ar
    34    69    67    1
    35    67    66    1
    36     3     4    2
    37    76    75   ar
    38    75    74    1
    39    25    23    1
    40    34    33    2
    41    24    23    1
    42    23    20    1
    43    66    68    1
    44    66    63    1
    45    62    63    1
    46    74    71    1
    47    63    64    1
    48    33    32    1
    49    31    32    1
    50    32    35    1
    51    20    19    1
    52    20    21    1
    53    19    11   am
    54    71    70    1
    55    71    72    1
    56    64    65    2
    57    38    36    1
    58     9    10    1
    59    21    22    2
    60    35    36    1
    61    73    72    2
    62    13    10    1
    63    13    14    1
    64    98    96    1
    65    15    14   ar
    66    15    17   ar
    67    72    81   am
    68    90    89   ar
    69    90    88   ar
    70    11    10    1
    71    11    12    2
    72    36    37    1
    73    89    87   ar
    74    14    16   ar
    75    88    86   ar
    76    17    18   ar
    77    81    82    1
    78    87    86   ar
    79    97    95    1
    80    96    95    1
    81    86    85    1
    82   105   103    1
    83    95    92    1
    84    16    18   ar
    85    82    85    1
    86    82    83    1
    87    30    27    1
    88   104   103    1
    89   103   100    1
    90    99   100    1
    91    99    93   am
    92    92    91    1
    93    92    93    1
    94    83    84    2
    95    26    27    1
    96   100   101    1
    97    93    94    2
    98    27    28    1
    99    28    29    2
   100   101   102    2
