@<TRIPOS>MOLECULE
tmp/1w5cB15.pdb
 91 86 0 0 0
SMALL
GASTEIGER

@<TRIPOS>ATOM
      1  N         -6.9990   52.6830    8.7320 N.3   133  LEU133     -0.1231
      2  CA        -7.3390   52.7470   10.1470 C.3   133  LEU133      0.1678
      3  C         -8.7450   53.2550   10.4760 C.2   133  LEU133      0.2434
      4  O         -9.6470   52.4490   10.6220 O.2   133  LEU133     -0.2733
      5  CB        -6.2620   53.5650   10.8520 C.3   133  LEU133      0.0284
      6  CG        -4.8900   53.2640   10.2380 C.3   133  LEU133      0.0019
      7  CD1       -3.9320   54.3720   10.5860 C.3   133  LEU133      0.0001
      8  CD2       -4.3860   51.9270   10.7060 C.3   133  LEU133      0.0001
      9  N         -8.9660   54.5820   10.5810 N.am  134  PRO134     -0.2729
     10  CA       -10.3360   54.9970   10.9030 C.3   134  PRO134      0.1401
     11  C        -11.4870   54.1580   10.3580 C.2   134  PRO134      0.2269
     12  O        -12.5400   54.0680   10.9880 O.2   134  PRO134     -0.2865
     13  CB       -10.3610   56.4420   10.4320 C.3   134  PRO134      0.0296
     14  CG        -9.0320   56.9180   10.8950 C.3   134  PRO134      0.0237
     15  CD        -8.1130   55.7780   10.4230 C.3   134  PRO134      0.0939
     16  N        -11.0180   50.9020    9.6020 N.3   136  MET136     -0.1230
     17  CA       -10.7620   49.6520   10.3230 C.3   136  MET136      0.1702
     18  C        -11.2980   49.7240   11.7190 C.2   136  MET136      0.2592
     19  O        -12.2070   49.0020   12.0830 O.2   136  MET136     -0.2718
     20  CB        -9.2630   49.3430   10.3680 C.3   136  MET136      0.0401
     21  CG        -8.5370   49.5630    9.0210 C.3   136  MET136      0.0596
     22  SD        -7.3550   48.2580    8.4540 S.3   136  MET136     -0.1393
     23  CE        -5.8760   48.7820    9.2790 C.3   136  MET136      0.0692
     24  N        -10.7410   50.6190   12.5070 N.am  137  PHE137     -0.1976
     25  CA       -11.2170   50.7490   13.8720 C.3   137  PHE137      0.1639
     26  C        -12.6870   51.1270   13.9120 C.2   137  PHE137      0.2290
     27  O        -13.2260   51.4990   14.9740 O.2   137  PHE137     -0.2864
     28  CB       -10.4410   51.7830   14.6780 C.3   137  PHE137      0.0560
     29  CG       -11.0270   52.0110   16.0310 C.ar  137  PHE137     -0.0200
     30  CD1      -11.3590   50.9260   16.8440 C.ar  137  PHE137     -0.0042
     31  CD2      -11.3090   53.3050   16.4800 C.ar  137  PHE137     -0.0042
     32  CE1      -11.9730   51.1200   18.1010 C.ar  137  PHE137     -0.0003
     33  CE2      -11.9260   53.5280   17.7440 C.ar  137  PHE137     -0.0003
     34  CZ       -12.2620   52.4300   18.5640 C.ar  137  PHE137     -0.0000
     35  N        -13.9760   47.0350   12.4330 N.3   140  HIS140     -0.1241
     36  CA       -13.6650   45.9680   13.3510 C.3   140  HIS140      0.1621
     37  C        -14.6060   46.0510   14.5290 C.2   140  HIS140      0.2264
     38  O        -15.2900   45.0740   14.8820 O.2   140  HIS140     -0.2867
     39  CB       -12.2280   46.0660   13.8430 C.3   140  HIS140      0.0745
     40  CG       -11.2220   45.5810   12.8530 C.ar  140  HIS140      0.0817
     41  ND1       -9.8930   45.4160   13.1660 N.ar  140  HIS140     -0.2268
     42  CD2      -11.3480   45.2540   11.5450 C.ar  140  HIS140      0.1154
     43  CE1       -9.2410   45.0140   12.0900 C.ar  140  HIS140      0.1986
     44  NE2      -10.1000   44.9070   11.0910 N.ar  140  HIS140     -0.2212
     45  N         -2.8020   62.3530   17.0090 N.3   227  LEU227     -0.1245
     46  CA        -2.1710   61.0670   17.3200 C.3   227  LEU227      0.1561
     47  C         -1.3490   60.4880   16.1650 C.2   227  LEU227      0.2260
     48  O         -1.3320   59.2570   16.0000 O.2   227  LEU227     -0.2867
     49  CB        -3.2460   60.0680   17.7600 C.3   227  LEU227      0.0270
     50  CG        -3.8860   60.3160   19.1250 C.3   227  LEU227      0.0019
     51  CD1       -5.0110   59.3260   19.3180 C.3   227  LEU227      0.0001
     52  CD2       -2.8950   60.1640   20.2510 C.3   227  LEU227      0.0001
     53  N         -1.9470   59.5930   13.9040 N.3   229  MET229     -0.1245
     54  CA        -2.9450   58.7100   13.3020 C.3   229  MET229      0.1570
     55  C         -2.5620   58.4730   11.8560 C.2   229  MET229      0.2261
     56  O         -2.1920   59.4260   11.1580 O.2   229  MET229     -0.2867
     57  CB        -4.3410   59.3690   13.3260 C.3   229  MET229      0.0387
     58  CG        -5.5340   58.4980   13.7210 C.3   229  MET229      0.0595
     59  SD        -7.0530   59.4450   13.9590 S.3   229  MET229     -0.1393
     60  CE        -7.0220   59.7100   15.7300 C.3   229  MET229      0.0692
     61  N          1.0340   54.4270   16.4170 N.3   234  THR234     -0.1203
     62  CA        -0.0620   54.9310   17.2350 C.3   234  THR234      0.1994
     63  C         -1.1900   53.9310   17.4420 C.2   234  THR234      0.2617
     64  O         -1.7390   53.8140   18.5340 O.2   234  THR234     -0.2717
     65  CB        -0.6620   56.2090   16.6470 C.3   234  THR234      0.1784
     66  OG1       -1.5740   56.8050   17.5920 O.3   234  THR234     -0.2211
     67  CG2       -1.3740   55.8820   15.3560 C.3   234  THR234      0.0376
     68  N         -1.5580   53.2100   16.4020 N.am  235  VAL235     -0.1979
     69  CA        -2.6200   52.2490   16.5740 C.3   235  VAL235      0.1595
     70  C         -2.2000   51.2330   17.6140 C.2   235  VAL235      0.2287
     71  O         -2.9630   50.9170   18.5220 O.2   235  VAL235     -0.2864
     72  CB        -2.9190   51.5080   15.2950 C.3   235  VAL235      0.0276
     73  CG1       -3.9760   50.4620   15.5450 C.3   235  VAL235      0.0022
     74  CG2       -3.3670   52.4860   14.2490 C.3   235  VAL235      0.0022
     75  N         -1.9260   52.3480   21.2390 N.3   238  SER238     -0.1202
     76  CA        -3.2890   52.6600   21.6340 C.3   238  SER238      0.2020
     77  C         -3.9650   51.3940   22.1280 C.2   238  SER238      0.2619
     78  O         -4.5690   51.3850   23.1880 O.2   238  SER238     -0.2717
     79  CB        -4.0660   53.2530   20.4510 C.3   238  SER238      0.2103
     80  OG        -3.9900   54.6750   20.3850 O.3   238  SER238     -0.2182
     81  N         -3.8520   50.3220   21.3540 N.am  239  SER239     -0.1951
     82  CA        -4.4500   49.0310   21.7280 C.3   239  SER239      0.1924
     83  C         -3.6800   48.3500   22.8600 C.2   239  SER239      0.2314
     84  O         -4.2660   47.6620   23.6800 O.2   239  SER239     -0.2863
     85  CB        -4.4830   48.0560   20.5360 C.3   239  SER239      0.2116
     86  OG        -5.1950   48.5950   19.4410 O.3   239  SER239     -0.2180
     87  N         -4.6930   49.4260   26.0540 N.3   242  ALA242     -0.1245
     88  CA        -6.0140   48.8670   26.2700 C.3   242  ALA242      0.1562
     89  C         -5.9960   47.4190   26.6940 C.2   242  ALA242      0.2260
     90  O         -6.9410   46.9750   27.3130 O.2   242  ALA242     -0.2867
     91  CB        -6.8300   49.0160   25.0370 C.3   242  ALA242      0.0290
@<TRIPOS>BOND
     1    22    21    1
     2    22    23    1
     3     1     2    1
     4    21    20    1
     5    16    17    1
     6     2     3    1
     7     2     5    1
     8     6     7    1
     9     6     8    1
    10     6     5    1
    11    17    20    1
    12    17    18    1
    13    11    10    1
    14    11    12    2
    15    15     9    1
    16    15    14    1
    17    13    14    1
    18    13    10    1
    19     3     9   am
    20     3     4    2
    21     9    10    1
    22    44    42   ar
    23    44    43   ar
    24    56    55    2
    25    42    40   ar
    26    18    19    2
    27    18    24   am
    28    55    54    1
    29    43    41   ar
    30    35    36    1
    31    24    25    1
    32    40    41   ar
    33    40    39    1
    34    54    57    1
    35    54    53    1
    36    57    58    1
    37    36    39    1
    38    36    37    1
    39    58    59    1
    40    25    26    1
    41    25    28    1
    42    26    27    2
    43    59    60    1
    44    74    72    1
    45    37    38    2
    46    28    29    1
    47    72    73    1
    48    72    69    1
    49    67    65    1
    50    48    47    2
    51    29    31   ar
    52    29    30   ar
    53    47    46    1
    54    68    69    1
    55    68    63   am
    56    61    62    1
    57    31    33   ar
    58    69    70    1
    59    65    62    1
    60    65    66    1
    61    30    32   ar
    62    45    46    1
    63    62    63    1
    64    46    49    1
    65    63    64    2
    66    70    71    2
    67    33    34   ar
    68    49    50    1
    69    32    34   ar
    70    50    51    1
    71    50    52    1
    72    86    85    1
    73    80    79    1
    74    79    76    1
    75    85    82    1
    76    75    76    1
    77    81    82    1
    78    81    77   am
    79    76    77    1
    80    82    83    1
    81    77    78    2
    82    83    84    2
    83    91    88    1
    84    87    88    1
    85    88    89    1
    86    89    90    2
