@<TRIPOS>MOLECULE
tmp/1w5cI09.pdb
 139 138 0 0 0
SMALL
GASTEIGER

@<TRIPOS>ATOM
      1  N        -16.1530   -6.4270  -32.5830 N.3   138  THR138     -0.1218
      2  CA       -17.3890   -6.6240  -31.8360 C.3   138  THR138      0.1862
      3  C        -18.1260   -7.8840  -32.2700 C.2   138  THR138      0.2287
      4  O        -18.4760   -8.7200  -31.4490 O.2   138  THR138     -0.2866
      5  CB       -18.3580   -5.4550  -32.0350 C.3   138  THR138      0.1770
      6  OG1      -17.6160   -4.2510  -32.2320 O.3   138  THR138     -0.2211
      7  CG2      -19.2500   -5.2970  -30.8220 C.3   138  THR138      0.0375
      8  N        -16.2440  -11.1990  -31.0560 N.3   141  LEU141     -0.1245
      9  CA       -16.4380  -11.3730  -29.6300 C.3   141  LEU141      0.1561
     10  C        -17.8570  -11.9530  -29.4830 C.2   141  LEU141      0.2260
     11  O        -18.0210  -13.1010  -29.0580 O.2   141  LEU141     -0.2867
     12  CB       -16.3590  -10.0050  -28.9650 C.3   141  LEU141      0.0270
     13  CG       -16.2990   -9.8060  -27.4620 C.3   141  LEU141      0.0019
     14  CD1      -16.7570   -8.3770  -27.2050 C.3   141  LEU141      0.0001
     15  CD2      -17.1700  -10.8010  -26.7390 C.3   141  LEU141      0.0001
     16  N        -19.5590  -15.0860  -27.5280 N.3   145  LEU145     -0.1245
     17  CA       -20.4100  -15.1240  -26.3250 C.3   145  LEU145      0.1561
     18  C        -21.4920  -16.1880  -26.4670 C.2   145  LEU145      0.2260
     19  O        -22.1280  -16.6190  -25.4840 O.2   145  LEU145     -0.2867
     20  CB       -21.0480  -13.7470  -26.0440 C.3   145  LEU145      0.0270
     21  CG       -20.1050  -12.6480  -25.5570 C.3   145  LEU145      0.0019
     22  CD1      -20.8750  -11.3510  -25.4770 C.3   145  LEU145      0.0001
     23  CD2      -19.5230  -12.9610  -24.2020 C.3   145  LEU145      0.0001
     24  N        -27.9960  -15.0610  -20.6220 N.3   223  ILE223     -0.1231
     25  CA       -27.3890  -13.7390  -20.4780 C.3   223  ILE223      0.1692
     26  C        -26.4020  -13.4140  -21.5710 C.2   223  ILE223      0.2592
     27  O        -26.6340  -12.5060  -22.3740 O.2   223  ILE223     -0.2718
     28  CB       -26.6220  -13.5920  -19.1410 C.3   223  ILE223      0.0266
     29  CG1      -27.5760  -13.2710  -18.0040 C.3   223  ILE223      0.0019
     30  CG2      -25.6550  -12.4370  -19.2260 C.3   223  ILE223      0.0020
     31  CD1      -28.2380  -11.9290  -18.1880 C.3   223  ILE223      0.0001
     32  N        -25.3020  -14.1620  -21.6000 N.am  224  CYS224     -0.1970
     33  CA       -24.2700  -13.8960  -22.5770 C.3   224  CYS224      0.1712
     34  C        -24.6200  -14.2200  -24.0280 C.2   224  CYS224      0.2296
     35  O        -24.1400  -13.5260  -24.9270 O.2   224  CYS224     -0.2864
     36  CB       -22.9850  -14.5950  -22.1690 C.3   224  CYS224      0.0983
     37  SG       -23.1670  -16.3520  -22.2410 S.3   224  CYS224     -0.0798
     38  N        -27.3230  -13.6540  -25.4350 N.3   226  ALA226     -0.1231
     39  CA       -28.0430  -12.4490  -25.8130 C.3   226  ALA226      0.1694
     40  C        -27.0300  -11.4150  -26.2380 C.2   226  ALA226      0.2592
     41  O        -27.1890  -10.8030  -27.2910 O.2   226  ALA226     -0.2718
     42  CB       -28.8380  -11.9350  -24.6520 C.3   226  ALA226      0.0304
     43  N        -25.9900  -11.2350  -25.4140 N.am  227  GLY227     -0.1957
     44  CA       -24.9310  -10.2780  -25.7160 C.3   227  GLY227      0.1869
     45  C        -24.2260  -10.5660  -27.0440 C.2   227  GLY227      0.2309
     46  O        -24.0510   -9.6780  -27.8950 O.2   227  GLY227     -0.2863
     47  N        -26.5900   -9.3330  -29.7020 N.3   230  TRP230     -0.1227
     48  CA       -26.6800   -7.8730  -29.7020 C.3   230  TRP230      0.1737
     49  C        -25.3820   -7.2190  -30.1590 C.2   230  TRP230      0.2595
     50  O        -25.4170   -6.2480  -30.9300 O.2   230  TRP230     -0.2718
     51  CB       -27.0200   -7.3440  -28.3030 C.3   230  TRP230      0.0564
     52  CG       -27.1150   -5.8560  -28.2400 C.ar  230  TRP230      0.0003
     53  CD1      -26.2020   -4.9600  -28.6970 C.ar  230  TRP230      0.0946
     54  CD2      -28.1730   -5.0860  -27.6750 C.ar  230  TRP230      0.0152
     55  NE1      -26.6190   -3.6820  -28.4580 N.ar  230  TRP230     -0.2442
     56  CE2      -27.8310   -3.7290  -27.8280 C.ar  230  TRP230      0.0810
     57  CE3      -29.3770   -5.4080  -27.0440 C.ar  230  TRP230      0.0012
     58  CZ2      -28.6510   -2.6930  -27.3760 C.ar  230  TRP230      0.0191
     59  CZ3      -30.1940   -4.3670  -26.5860 C.ar  230  TRP230      0.0001
     60  CH2      -29.8240   -3.0320  -26.7570 C.ar  230  TRP230      0.0015
     61  N        -24.2440   -7.7240  -29.6750 N.am  231  HIS231     -0.1975
     62  CA       -22.9380   -7.1820  -30.0450 C.3   231  HIS231      0.1656
     63  C        -22.6610   -7.0930  -31.5460 C.2   231  HIS231      0.2291
     64  O        -22.2910   -6.0310  -32.0720 O.2   231  HIS231     -0.2864
     65  CB       -21.8580   -8.0070  -29.3960 C.3   231  HIS231      0.0771
     66  CG       -21.2340   -7.3310  -28.2310 C.ar  231  HIS231      0.0820
     67  ND1      -19.8820   -7.0770  -28.1670 N.ar  231  HIS231     -0.2267
     68  CD2      -21.7760   -6.8170  -27.0990 C.ar  231  HIS231      0.1154
     69  CE1      -19.6170   -6.4340  -27.0440 C.ar  231  HIS231      0.1986
     70  NE2      -20.7480   -6.2630  -26.3750 N.ar  231  HIS231     -0.2212
     71  N        -24.2550   -4.0520  -34.0130 N.3   234  THR234     -0.1218
     72  CA       -23.5860   -2.7860  -34.2990 C.3   234  THR234      0.1862
     73  C        -22.1840   -2.5930  -33.7510 C.2   234  THR234      0.2287
     74  O        -21.6070   -3.4430  -33.0610 O.2   234  THR234     -0.2866
     75  CB       -24.4590   -1.6340  -33.8160 C.3   234  THR234      0.1770
     76  OG1      -24.6530   -1.7770  -32.4170 O.3   234  THR234     -0.2211
     77  CG2      -25.7910   -1.5880  -34.5390 C.3   234  THR234      0.0375
     78  N        -19.8250   -0.2990  -31.4040 N.3   236  PRO236     -0.2102
     79  CA       -20.0980    0.0140  -30.0020 C.3   236  PRO236      0.1504
     80  C        -21.1510    1.0830  -29.7290 C.2   236  PRO236      0.2575
     81  O        -22.3590    0.8300  -29.6660 O.2   236  PRO236     -0.2718
     82  CB       -18.7060    0.2330  -29.4940 C.3   236  PRO236      0.0282
     83  CG       -18.1580   -1.0670  -29.9560 C.3   236  PRO236      0.0208
     84  CD       -18.7530   -1.3040  -31.3230 C.3   236  PRO236      0.0893
     85  N        -20.6620    2.2910  -29.5610 N.am  237  PHE237     -0.1977
     86  CA       -21.4730    3.4400  -29.3060 C.3   237  PHE237      0.1639
     87  C        -20.5390    4.6320  -29.3870 C.2   237  PHE237      0.2290
     88  O        -19.6540    4.6850  -30.2610 O.2   237  PHE237     -0.2864
     89  CB       -22.1570    3.4050  -27.9410 C.3   237  PHE237      0.0560
     90  CG       -23.5900    2.9980  -27.9780 C.ar  237  PHE237     -0.0200
     91  CD1      -24.3510    3.1090  -29.1340 C.ar  237  PHE237     -0.0042
     92  CD2      -24.1980    2.4910  -26.8360 C.ar  237  PHE237     -0.0042
     93  CE1      -25.6640    2.7250  -29.1520 C.ar  237  PHE237     -0.0003
     94  CE2      -25.5210    2.1030  -26.8430 C.ar  237  PHE237     -0.0003
     95  CZ       -26.2650    2.2210  -28.0010 C.ar  237  PHE237     -0.0000
     96  N        -19.3710    6.4090  -26.2390 N.3   239  TRP239     -0.1227
     97  CA       -18.6690    6.6770  -25.0240 C.3   239  TRP239      0.1737
     98  C        -17.7890    5.4780  -24.9730 C.2   239  TRP239      0.2595
     99  O        -16.5720    5.5810  -24.8000 O.2   239  TRP239     -0.2718
    100  CB       -19.6130    6.7260  -23.8320 C.3   239  TRP239      0.0564
    101  CG       -20.7880    5.8110  -23.8550 C.ar  239  TRP239      0.0003
    102  CD1      -22.0200    6.0720  -24.3810 C.ar  239  TRP239      0.0946
    103  CD2      -20.9090    4.5780  -23.1440 C.ar  239  TRP239      0.0152
    104  NE1      -22.9060    5.0890  -24.0200 N.ar  239  TRP239     -0.2442
    105  CE2      -22.2490    4.1590  -23.2580 C.ar  239  TRP239      0.0810
    106  CE3      -20.0100    3.7890  -22.4010 C.ar  239  TRP239      0.0012
    107  CZ2      -22.7150    2.9870  -22.6560 C.ar  239  TRP239      0.0191
    108  CZ3      -20.4720    2.6310  -21.8040 C.ar  239  TRP239      0.0001
    109  CH2      -21.8100    2.2400  -21.9320 C.ar  239  TRP239      0.0015
    110  N        -18.4260    4.3280  -25.1570 N.am  240  ALA240     -0.1980
    111  CA       -17.7060    3.0690  -25.1760 C.3   240  ALA240      0.1597
    112  C        -16.6170    3.3790  -26.1530 C.2   240  ALA240      0.2287
    113  O        -15.4480    3.2070  -25.8640 O.2   240  ALA240     -0.2864
    114  CB       -18.5760    1.9670  -25.7190 C.3   240  ALA240      0.0319
    115  N        -12.7050    3.6890  -24.4890 N.3   244  PHE244     -0.1241
    116  CA       -11.6990    2.6580  -24.6590 C.3   244  PHE244      0.1605
    117  C        -10.7780    2.9600  -25.8060 C.2   244  PHE244      0.2264
    118  O        -11.1480    3.7230  -26.6980 O.2   244  PHE244     -0.2867
    119  CB       -12.3800    1.3250  -24.9300 C.3   244  PHE244      0.0534
    120  CG       -13.4090    0.9650  -23.9130 C.ar  244  PHE244     -0.0203
    121  CD1      -13.1530   -0.0130  -22.9730 C.ar  244  PHE244     -0.0042
    122  CD2      -14.6140    1.6480  -23.8540 C.ar  244  PHE244     -0.0042
    123  CE1      -14.0720   -0.3020  -21.9860 C.ar  244  PHE244     -0.0003
    124  CE2      -15.5380    1.3650  -22.8680 C.ar  244  PHE244     -0.0003
    125  CZ       -15.2660    0.3860  -21.9270 C.ar  244  PHE244     -0.0000
    126  N         -8.3110    1.0620  -28.7840 N.3   246  TRP246     -0.1241
    127  CA        -8.5370   -0.1960  -29.4680 C.3   246  TRP246      0.1605
    128  C         -7.3410   -0.7890  -30.1960 C.2   246  TRP246      0.2264
    129  O         -6.9060   -0.2530  -31.1970 O.2   246  TRP246     -0.2867
    130  CB        -9.6990   -0.0130  -30.4470 C.3   246  TRP246      0.0550
    131  CG       -10.7620    0.9250  -29.9340 C.ar  246  TRP246      0.0003
    132  CD1      -10.6030    2.2440  -29.6090 C.ar  246  TRP246      0.0946
    133  CD2      -12.1180    0.6060  -29.6370 C.ar  246  TRP246      0.0152
    134  NE1      -11.7730    2.7600  -29.1190 N.ar  246  TRP246     -0.2442
    135  CE2      -12.7180    1.7760  -29.1230 C.ar  246  TRP246      0.0810
    136  CE3      -12.8880   -0.5580  -29.7520 C.ar  246  TRP246      0.0012
    137  CZ2      -14.0430    1.8170  -28.7220 C.ar  246  TRP246      0.0191
    138  CZ3      -14.2110   -0.5200  -29.3540 C.ar  246  TRP246      0.0001
    139  CH2      -14.7780    0.6640  -28.8420 C.ar  246  TRP246      0.0015
@<TRIPOS>BOND
     1    77    75    1
     2    72    71    1
     3    72    75    1
     4    72    73    1
     5    75    76    1
     6    73    74    2
     7     1     2    1
     8     3     2    1
     9     3     4    2
    10     6     5    1
    11    64    63    2
    12     5     2    1
    13     5     7    1
    14    63    62    1
    15    78    84    1
    16    78    79    1
    17    84    83    1
    18   129   128    2
    19     8     9    1
    20    50    49    2
    21   130   131    1
    22   130   127    1
    23    88    87    2
    24   128   127    1
    25    49    48    1
    26    49    61   am
    27    62    61    1
    28    62    65    1
    29    79    80    1
    30    79    82    1
    31    83    82    1
    32   131   133   ar
    33   131   132   ar
    34   136   133   ar
    35   136   138   ar
    36    80    81    2
    37    80    85   am
    38    47    48    1
    39    48    51    1
    40   133   135   ar
    41     9    10    1
    42     9    12    1
    43   132   134   ar
    44    85    86    1
    45    10    11    2
    46   127   126    1
    47    65    66    1
    48    87    86    1
    49   138   139   ar
    50    86    89    1
    51    93    91   ar
    52    93    95   ar
    53    91    90   ar
    54   135   134   ar
    55   135   137   ar
    56    12    13    1
    57   139   137   ar
    58    53    55   ar
    59    53    52   ar
    60    55    56   ar
    61    51    52    1
    62    52    54   ar
    63    66    67   ar
    64    66    68   ar
    65    67    69   ar
    66    95    94   ar
    67    90    89    1
    68    90    92   ar
    69    46    45    2
    70    56    54   ar
    71    56    58   ar
    72    54    57   ar
    73    16    17    1
    74    13    14    1
    75    13    15    1
    76    58    60   ar
    77    41    40    2
    78    68    70   ar
    79    57    59   ar
    80    45    44    1
    81    69    70   ar
    82    94    92   ar
    83    60    59   ar
    84   118   117    2
    85    18    17    1
    86    18    19    2
    87    17    20    1
    88    96    97    1
    89    40    39    1
    90    40    43   am
    91   112   113    2
    92   112   111    1
    93    20    21    1
    94    39    38    1
    95    39    42    1
    96   117   116    1
    97   114   111    1
    98    44    43    1
    99    21    22    1
   100    21    23    1
   101   111   110    1
   102   110    98   am
   103    97    98    1
   104    97   100    1
   105    98    99    2
   106   119   116    1
   107   119   120    1
   108    35    34    2
   109   116   115    1
   110   102   104   ar
   111   102   101   ar
   112    34    33    1
   113   104   105   ar
   114   120   122   ar
   115   120   121   ar
   116   101   100    1
   117   101   103   ar
   118   122   124   ar
   119   105   103   ar
   120   105   107   ar
   121   103   106   ar
   122   121   123   ar
   123   124   125   ar
   124   107   109   ar
   125    33    36    1
   126    33    32    1
   127   106   108   ar
   128    27    26    2
   129    37    36    1
   130   123   125   ar
   131   109   108   ar
   132    32    26   am
   133    26    25    1
   134    24    25    1
   135    25    28    1
   136    30    28    1
   137    28    29    1
   138    31    29    1
