@<TRIPOS>MOLECULE
tmp/1w5cI05.pdb
 155 147 0 0 0
SMALL
GASTEIGER

@<TRIPOS>ATOM
      1  N         -3.7400  -26.9740  -24.2590 N.3    40  ILE40      -0.1245
      2  CA        -4.4240  -27.1330  -22.9700 C.3    40  ILE40       0.1561
      3  C         -5.2410  -28.4120  -23.0670 C.2    40  ILE40       0.2260
      4  O         -5.2580  -29.2290  -22.1460 O.2    40  ILE40      -0.2867
      5  CB        -5.4360  -25.9970  -22.6480 C.3    40  ILE40       0.0252
      6  CG1       -4.8100  -24.6140  -22.7730 C.3    40  ILE40       0.0019
      7  CG2       -5.9060  -26.1560  -21.2280 C.3    40  ILE40       0.0019
      8  CD1       -5.8050  -23.4950  -22.5490 C.3    40  ILE40       0.0001
      9  N         -3.0100  -31.1640  -22.4240 N.3    43  TRP43      -0.1241
     10  CA        -2.7590  -31.2750  -20.9850 C.3    43  TRP43       0.1605
     11  C         -3.9020  -31.9860  -20.2740 C.2    43  TRP43       0.2264
     12  O         -3.7090  -33.0250  -19.6160 O.2    43  TRP43      -0.2867
     13  CB        -2.5830  -29.8900  -20.3760 C.3    43  TRP43       0.0550
     14  CG        -2.2610  -29.9260  -18.9240 C.ar   43  TRP43       0.0003
     15  CD1       -1.0430  -30.1550  -18.3700 C.ar   43  TRP43       0.0946
     16  CD2       -3.1760  -29.7590  -17.8390 C.ar   43  TRP43       0.0152
     17  NE1       -1.1440  -30.1390  -17.0090 N.ar   43  TRP43      -0.2442
     18  CE2       -2.4420  -29.8990  -16.6520 C.ar   43  TRP43       0.0810
     19  CE3       -4.5490  -29.5070  -17.7570 C.ar   43  TRP43       0.0012
     20  CZ2       -3.0300  -29.7990  -15.3950 C.ar   43  TRP43       0.0191
     21  CZ3       -5.1330  -29.4090  -16.5080 C.ar   43  TRP43       0.0001
     22  CH2       -4.3730  -29.5560  -15.3440 C.ar   43  TRP43       0.0015
     23  N         -5.9360  -33.4400   -8.7310 N.3    67  ILE67      -0.1231
     24  CA        -6.5310  -32.1630   -9.0830 C.3    67  ILE67       0.1692
     25  C         -7.7640  -32.2990   -9.9960 C.2    67  ILE67       0.2591
     26  O         -8.8190  -31.7020   -9.7500 O.2    67  ILE67      -0.2718
     27  CB        -5.4640  -31.2470   -9.7510 C.3    67  ILE67       0.0266
     28  CG1       -4.4470  -30.8140   -8.6760 C.3    67  ILE67       0.0019
     29  CG2       -6.1050  -30.0660  -10.4390 C.3    67  ILE67       0.0020
     30  CD1       -3.2170  -30.1490   -9.2300 C.3    67  ILE67       0.0001
     31  N         -7.6350  -33.1080  -11.0370 N.am   68  LEU68      -0.1980
     32  CA        -8.7050  -33.2600  -12.0170 C.3    68  LEU68       0.1596
     33  C         -9.9650  -34.0740  -11.7020 C.2    68  LEU68       0.2287
     34  O        -11.0830  -33.5260  -11.6300 O.2    68  LEU68      -0.2864
     35  CB        -8.1060  -33.8260  -13.2960 C.3    68  LEU68       0.0297
     36  CG        -7.1450  -32.8920  -14.0640 C.3    68  LEU68       0.0022
     37  CD1       -6.7220  -33.5690  -15.3540 C.3    68  LEU68       0.0001
     38  CD2       -7.7500  -31.5640  -14.3590 C.3    68  LEU68       0.0001
     39  N        -13.2440  -32.9560  -10.3760 N.3    71  HIS71      -0.1241
     40  CA       -14.0680  -32.1230  -11.2260 C.3    71  HIS71       0.1621
     41  C        -15.1250  -32.9550  -11.8920 C.2    71  HIS71       0.2264
     42  O        -16.3280  -32.6750  -11.7830 O.2    71  HIS71      -0.2867
     43  CB       -13.2250  -31.4440  -12.2900 C.3    71  HIS71       0.0745
     44  CG       -12.5210  -30.2220  -11.7970 C.ar   71  HIS71       0.0817
     45  ND1      -13.1760  -29.0340  -11.5450 N.ar   71  HIS71      -0.2268
     46  CD2      -11.2330  -30.0280  -11.4280 C.ar   71  HIS71       0.1154
     47  CE1      -12.3240  -28.1660  -11.0350 C.ar   71  HIS71       0.1986
     48  NE2      -11.1380  -28.7420  -10.9540 N.ar   71  HIS71      -0.2212
     49  N        -19.5590  -33.0570  -11.3780 N.3    75  LEU75      -0.1245
     50  CA       -20.4510  -33.0340  -12.5150 C.3    75  LEU75       0.1561
     51  C        -21.5990  -34.0420  -12.4660 C.2    75  LEU75       0.2260
     52  O        -22.7440  -33.7090  -12.8020 O.2    75  LEU75      -0.2867
     53  CB       -19.6520  -33.2740  -13.7770 C.3    75  LEU75       0.0270
     54  CG       -19.9590  -32.1810  -14.7710 C.3    75  LEU75       0.0019
     55  CD1      -19.6490  -30.8220  -14.1390 C.3    75  LEU75       0.0001
     56  CD2      -19.1530  -32.4360  -16.0290 C.3    75  LEU75       0.0001
     57  N         -9.0580  -11.9200  -16.6220 N.3   259  LEU259     -0.1231
     58  CA        -8.7900  -13.1820  -15.9620 C.3   259  LEU259      0.1693
     59  C         -8.2450  -12.9800  -14.5490 C.2   259  LEU259      0.2592
     60  O         -8.8410  -13.4620  -13.5870 O.2   259  LEU259     -0.2718
     61  CB        -7.7990  -13.9840  -16.7860 C.3   259  LEU259      0.0284
     62  CG        -8.0920  -13.9410  -18.2730 C.3   259  LEU259      0.0019
     63  CD1       -7.0420  -14.7340  -19.0360 C.3   259  LEU259      0.0001
     64  CD2       -9.4680  -14.4880  -18.5000 C.3   259  LEU259      0.0001
     65  N         -7.1280  -12.2660  -14.4140 N.am  260  SER260     -0.1952
     66  CA        -6.5460  -12.0780  -13.0890 C.3   260  SER260      0.1924
     67  C         -7.6720  -11.9730  -12.0580 C.2   260  SER260      0.2314
     68  O         -7.6340  -12.6520  -11.0410 O.2   260  SER260     -0.2863
     69  CB        -5.6290  -10.8320  -13.0410 C.3   260  SER260      0.2116
     70  OG        -6.3310   -9.6260  -12.7580 O.3   260  SER260     -0.2180
     71  N        -11.1900  -12.8150  -12.1790 N.3   262  MET262     -0.1230
     72  CA       -11.8570  -14.0860  -12.0550 C.3   262  MET262      0.1702
     73  C        -10.8480  -14.9970  -11.3780 C.2   262  MET262      0.2592
     74  O        -11.1690  -15.6740  -10.4050 O.2   262  MET262     -0.2718
     75  CB       -12.1770  -14.6390  -13.4400 C.3   262  MET262      0.0401
     76  CG       -12.7150  -13.6010  -14.4480 C.3   262  MET262      0.0596
     77  SD       -13.3100  -14.3430  -16.0210 S.3   262  MET262     -0.1393
     78  CE       -14.6220  -15.4220  -15.2990 C.3   262  MET262      0.0692
     79  N         -9.6200  -14.9780  -11.9050 N.am  263  GLY263     -0.1957
     80  CA        -8.5220  -15.7960  -11.3950 C.3   263  GLY263      0.1869
     81  C         -8.5010  -15.8520   -9.8850 C.2   263  GLY263      0.2309
     82  O         -8.4680  -16.9250   -9.2780 O.2   263  GLY263     -0.2863
     83  N        -11.3900  -17.4030   -8.4540 N.3   266  ALA266     -0.1231
     84  CA       -11.1970  -18.8390   -8.4900 C.3   266  ALA266      0.1694
     85  C        -10.6590  -19.3320   -7.1440 C.2   266  ALA266      0.2592
     86  O        -11.3930  -19.9410   -6.3570 O.2   266  ALA266     -0.2718
     87  CB       -10.2290  -19.1860   -9.5790 C.3   266  ALA266      0.0304
     88  N         -9.3730  -19.0550   -6.8960 N.am  267  THR267     -0.1953
     89  CA        -8.6710  -19.4440   -5.6670 C.3   267  THR267      0.1897
     90  C         -9.5860  -19.4470   -4.4660 C.2   267  THR267      0.2313
     91  O         -9.6470  -20.4190   -3.7400 O.2   267  THR267     -0.2863
     92  CB        -7.5540  -18.4870   -5.3500 C.3   267  THR267      0.1794
     93  OG1       -8.0810  -17.4180   -4.5610 O.3   267  THR267     -0.2208
     94  CG2       -6.9680  -17.9110   -6.6410 C.3   267  THR267      0.0378
     95  N        -12.6620  -21.8970   -4.3360 N.3   270  VAL270     -0.1245
     96  CA       -12.2430  -23.2330   -3.9310 C.3   270  VAL270      0.1561
     97  C        -12.0030  -23.3720   -2.4650 C.2   270  VAL270      0.2260
     98  O        -12.7450  -24.0390   -1.7660 O.2   270  VAL270     -0.2867
     99  CB       -10.9310  -23.6490   -4.5910 C.3   270  VAL270      0.0252
    100  CG1      -10.7130  -25.1410   -4.3800 C.3   270  VAL270      0.0019
    101  CG2      -10.9390  -23.2780   -6.0730 C.3   270  VAL270      0.0019
    102  N        -17.3460  -27.6460   -4.7180 N.3   277  TYR277     -0.1241
    103  CA       -16.1380  -28.3750   -4.3880 C.3   277  TYR277      0.1605
    104  C        -16.5920  -29.1650   -3.1700 C.2   277  TYR277      0.2264
    105  O        -16.6750  -28.6620   -2.0380 O.2   277  TYR277     -0.2867
    106  CB       -15.0050  -27.4280   -4.0350 C.3   277  TYR277      0.0534
    107  CG       -14.5260  -26.6240   -5.2030 C.ar  277  TYR277     -0.0201
    108  CD1      -13.9500  -27.2520   -6.2850 C.ar  277  TYR277     -0.0009
    109  CD2      -14.6540  -25.2340   -5.2280 C.ar  277  TYR277     -0.0009
    110  CE1      -13.5080  -26.5390   -7.3690 C.ar  277  TYR277      0.0417
    111  CE2      -14.2160  -24.5070   -6.3110 C.ar  277  TYR277      0.0417
    112  CZ       -13.6420  -25.1680   -7.3830 C.ar  277  TYR277      0.1957
    113  OH       -13.2300  -24.4550   -8.4810 O.3   277  TYR277     -0.2866
    114  N         -4.7520  -26.0150   -5.6510 N.3   406  LEU406     -0.1245
    115  CA        -5.6400  -25.2930   -6.4920 C.3   406  LEU406      0.1561
    116  C         -5.5880  -23.8230   -6.1670 C.2   406  LEU406      0.2260
    117  O         -5.3630  -22.9900   -7.0250 O.2   406  LEU406     -0.2867
    118  CB        -7.0580  -25.8210   -6.3580 C.3   406  LEU406      0.0270
    119  CG        -7.1880  -27.2150   -6.9540 C.3   406  LEU406      0.0019
    120  CD1       -8.4920  -27.8700   -6.5070 C.3   406  LEU406      0.0001
    121  CD2       -7.1000  -27.1620   -8.4600 C.3   406  LEU406      0.0001
    122  N         -3.3760  -20.4610   -8.6600 N.3   410  HIS410     -0.1241
    123  CA        -4.2060  -19.3570   -9.1040 C.3   410  HIS410      0.1621
    124  C         -3.8600  -17.9560   -8.6190 C.2   410  HIS410      0.2264
    125  O         -3.7590  -17.0340   -9.4320 O.2   410  HIS410     -0.2867
    126  CB        -5.6540  -19.7260   -8.8330 C.3   410  HIS410      0.0745
    127  CG        -6.1350  -20.7620   -9.7810 C.ar  410  HIS410      0.0817
    128  ND1       -5.3660  -21.8590  -10.0940 N.ar  410  HIS410     -0.2268
    129  CD2       -7.1770  -20.7740  -10.6420 C.ar  410  HIS410      0.1154
    130  CE1       -5.9030  -22.4940  -11.1210 C.ar  410  HIS410      0.1986
    131  NE2       -7.0040  -21.8540  -11.4750 N.ar  410  HIS410     -0.2212
    132  N         -0.9890  -16.9180  -10.3660 N.3   413  LEU413     -0.1231
    133  CA        -1.4180  -16.5740  -11.7190 C.3   413  LEU413      0.1693
    134  C         -2.2230  -15.2810  -11.7240 C.2   413  LEU413      0.2591
    135  O         -1.7140  -14.2300  -12.1290 O.2   413  LEU413     -0.2718
    136  CB        -2.2300  -17.7140  -12.3080 C.3   413  LEU413      0.0284
    137  CG        -1.3940  -18.9670  -12.6190 C.3   413  LEU413      0.0019
    138  CD1       -2.2780  -20.1350  -13.0000 C.3   413  LEU413      0.0001
    139  CD2       -0.3880  -18.6680  -13.7140 C.3   413  LEU413      0.0001
    140  N         -3.4660  -15.3480  -11.2630 N.am  414  ALA414     -0.1980
    141  CA        -4.3170  -14.1730  -11.2240 C.3   414  ALA414      0.1597
    142  C         -3.4940  -12.9340  -11.0050 C.2   414  ALA414      0.2287
    143  O         -3.5900  -11.9660  -11.7700 O.2   414  ALA414     -0.2864
    144  CB        -5.3840  -14.3120  -10.1510 C.3   414  ALA414      0.0319
    145  N         -0.8980  -11.9440  -13.8720 N.3   417  PHE417     -0.1241
    146  CA        -1.6970  -11.4270  -14.9690 C.3   417  PHE417      0.1605
    147  C         -2.1250   -9.9800  -14.7340 C.2   417  PHE417      0.2264
    148  O         -2.3750   -9.2300  -15.6800 O.2   417  PHE417     -0.2867
    149  CB        -2.9040  -12.3350  -15.1920 C.3   417  PHE417      0.0534
    150  CG        -2.6120  -13.5140  -16.0860 C.ar  417  PHE417     -0.0203
    151  CD1       -1.4250  -14.2260  -15.9470 C.ar  417  PHE417     -0.0042
    152  CD2       -3.5200  -13.8970  -17.0640 C.ar  417  PHE417     -0.0042
    153  CE1       -1.1400  -15.2960  -16.7670 C.ar  417  PHE417     -0.0003
    154  CE2       -3.2490  -14.9610  -17.8840 C.ar  417  PHE417     -0.0003
    155  CZ        -2.0480  -15.6700  -17.7380 C.ar  417  PHE417     -0.0000
@<TRIPOS>BOND
     1     1     2    1
     2     3     2    1
     3     3     4    2
     4     2     5    1
     5     6     5    1
     6     6     8    1
     7     5     7    1
     8     9    10    1
     9    10    13    1
    10    10    11    1
    11    13    14    1
    12    11    12    2
    13    63    62    1
    14    14    15   ar
    15    14    16   ar
    16    64    62    1
    17    15    17   ar
    18    62    61    1
    19   154   155   ar
    20   154   152   ar
    21    16    19   ar
    22    16    18   ar
    23    19    21   ar
    24   155   153   ar
    25   152   150   ar
    26    17    18   ar
    27    61    58    1
    28   153   151   ar
    29    18    20   ar
    30    57    58    1
    31    21    22   ar
    32   150   151   ar
    33   150   149    1
    34    56    54    1
    35    77    78    1
    36    77    76    1
    37    58    59    1
    38   148   147    2
    39    20    22   ar
    40    37    36    1
    41   149   146    1
    42   146   147    1
    43   146   145    1
    44    54    55    1
    45    54    53    1
    46    59    65   am
    47    59    60    2
    48    76    75    1
    49    65    66    1
    50    38    36    1
    51    36    35    1
    52    53    50    1
    53   139   137    1
    54    75    72    1
    55    35    32    1
    56    66    69    1
    57    66    67    1
    58    69    70    1
    59   138   137    1
    60    52    51    2
    61   137   136    1
    62    50    51    1
    63    50    49    1
    64   136   133    1
    65    43    44    1
    66    43    40    1
    67    71    72    1
    68   135   134    2
    69    67    68    2
    70    72    73    1
    71    32    33    1
    72    32    31    1
    73    79    80    1
    74    79    73   am
    75    41    42    2
    76    41    40    1
    77    44    45   ar
    78    44    46   ar
    79   143   142    2
    80   134   133    1
    81   134   140   am
    82   133   132    1
    83    33    34    2
    84    45    47   ar
    85   131   130   ar
    86   131   129   ar
    87    46    48   ar
    88    80    81    1
    89    73    74    2
    90   140   141    1
    91    40    39    1
    92   141   142    1
    93   141   144    1
    94   130   128   ar
    95    31    25   am
    96    47    48   ar
    97   129   127   ar
    98    29    27    1
    99   128   127   ar
   100    25    26    2
   101    25    24    1
   102    81    82    2
   103   127   126    1
   104    27    24    1
   105    27    28    1
   106    87    84    1
   107   125   124    2
   108    30    28    1
   109   123   126    1
   110   123   122    1
   111   123   124    1
   112    24    23    1
   113    84    83    1
   114    84    85    1
   115   113   112    1
   116   121   119    1
   117   112   110   ar
   118   112   111   ar
   119   110   108   ar
   120    85    88   am
   121    85    86    2
   122   117   116    2
   123   119   120    1
   124   119   118    1
   125    88    89    1
   126    94    92    1
   127   115   118    1
   128   115   116    1
   129   115   114    1
   130   111   109   ar
   131   108   107   ar
   132   101    99    1
   133    89    92    1
   134    89    90    1
   135    92    93    1
   136   109   107   ar
   137   107   106    1
   138   102   103    1
   139    99   100    1
   140    99    96    1
   141    90    91    2
   142   103   106    1
   143   103   104    1
   144    95    96    1
   145    96    97    1
   146   104   105    2
   147    97    98    2
