@<TRIPOS>MOLECULE
tmp/1w5cB09.pdb
 163 160 0 0 0
SMALL
GASTEIGER

@<TRIPOS>ATOM
      1  N         -1.3840   25.9780   20.6670 N.3    31  TRP31      -0.1241
      2  CA        -1.1830   25.8360   22.0850 C.3    31  TRP31       0.1605
      3  C         -2.5500   25.5630   22.7630 C.2    31  TRP31       0.2264
      4  O         -2.7410   24.5640   23.4290 O.2    31  TRP31      -0.2867
      5  CB        -0.5800   27.1180   22.6190 C.3    31  TRP31       0.0550
      6  CG        -0.2700   27.0480   24.0390 C.ar   31  TRP31       0.0003
      7  CD1        0.8770   26.5680   24.6020 C.ar   31  TRP31       0.0946
      8  CD2       -1.1250   27.4270   25.1220 C.ar   31  TRP31       0.0152
      9  NE1        0.7920   26.6260   25.9720 N.ar   31  TRP31      -0.2442
     10  CE2       -0.4280   27.1450   26.3190 C.ar   31  TRP31       0.0810
     11  CE3       -2.4120   27.9730   25.2010 C.ar   31  TRP31       0.0012
     12  CZ2       -0.9760   27.3920   27.5740 C.ar   31  TRP31       0.0191
     13  CZ3       -2.9530   28.2170   26.4460 C.ar   31  TRP31       0.0001
     14  CH2       -2.2380   27.9280   27.6160 C.ar   31  TRP31       0.0015
     15  N         -5.7500   25.0160   34.9130 N.3    59  PHE59      -0.1227
     16  CA        -5.7350   26.1710   34.0420 C.3    59  PHE59       0.1736
     17  C         -6.8170   26.0640   32.9740 C.2    59  PHE59       0.2595
     18  O         -7.9850   25.9250   33.2950 O.2    59  PHE59      -0.2718
     19  CB        -4.3970   26.2950   33.3510 C.3    59  PHE59       0.0547
     20  CG        -4.0170   27.6570   32.9220 C.ar   59  PHE59      -0.0202
     21  CD1       -4.3230   28.7690   33.6700 C.ar   59  PHE59      -0.0042
     22  CD2       -3.2820   27.8160   31.7780 C.ar   59  PHE59      -0.0042
     23  CE1       -3.8910   30.0170   33.2820 C.ar   59  PHE59      -0.0003
     24  CE2       -2.8490   29.0520   31.3850 C.ar   59  PHE59      -0.0003
     25  CZ        -3.1510   30.1550   32.1390 C.ar   59  PHE59      -0.0000
     26  N         -6.4050   26.1250   31.7260 N.am   60  VAL60      -0.1980
     27  CA        -7.2950   25.9670   30.6090 C.3    60  VAL60       0.1595
     28  C         -8.6580   25.3520   30.9750 C.2    60  VAL60       0.2287
     29  O         -9.6950   25.9360   30.6790 O.2    60  VAL60      -0.2864
     30  CB        -6.5680   25.1110   29.5860 C.3    60  VAL60       0.0276
     31  CG1       -7.5310   24.5050   28.6180 C.3    60  VAL60       0.0022
     32  CG2       -5.5210   25.9500   28.8840 C.3    60  VAL60       0.0022
     33  N        -11.9580   27.3530   32.3800 N.3    63  PHE63      -0.1241
     34  CA       -12.6640   28.1000   31.3610 C.3    63  PHE63       0.1605
     35  C        -13.5780   27.1850   30.5920 C.2    63  PHE63       0.2264
     36  O        -14.7940   27.3350   30.6440 O.2    63  PHE63      -0.2867
     37  CB       -11.6450   28.7990   30.4610 C.3    63  PHE63       0.0534
     38  CG       -10.6620   29.6540   31.2280 C.ar   63  PHE63      -0.0203
     39  CD1      -11.0570   30.8510   31.8100 C.ar   63  PHE63      -0.0042
     40  CD2       -9.3730   29.2030   31.4660 C.ar   63  PHE63      -0.0042
     41  CE1      -10.1860   31.5810   32.6290 C.ar   63  PHE63      -0.0003
     42  CE2       -8.4910   29.9220   32.2810 C.ar   63  PHE63      -0.0003
     43  CZ        -8.9040   31.1140   32.8640 C.ar   63  PHE63      -0.0000
     44  N        -16.5060   26.5360   32.8820 N.3    66  ARG66      -0.1231
     45  CA       -17.4140   27.6240   33.0840 C.3    66  ARG66       0.1694
     46  C        -18.2350   27.9900   31.8840 C.2    66  ARG66       0.2591
     47  O        -19.4440   27.9580   31.9650 O.2    66  ARG66      -0.2718
     48  CB       -16.6710   28.8610   33.6030 C.3    66  ARG66       0.0321
     49  CG       -16.1640   29.8290   32.5660 C.3    66  ARG66       0.0489
     50  CD       -15.5210   31.0310   33.2500 C.3    66  ARG66       0.2205
     51  NE       -14.8630   31.8880   32.2860 N.pl3  66  ARG66      -0.0865
     52  CZ       -14.1830   32.9730   32.5980 C.cat  66  ARG66       0.5346
     53  NH1      -14.0530   33.3520   33.8510 N.pl3  66  ARG66       0.1354
     54  NH2      -13.6480   33.6860   31.6370 N.pl3  66  ARG66       0.1354
     55  N        -17.6170   28.3190   30.7640 N.am   67  LEU67      -0.1980
     56  CA       -18.4140   28.7310   29.6160 C.3    67  LEU67       0.1596
     57  C        -19.4360   27.7360   29.0770 C.2    67  LEU67       0.2287
     58  O        -20.1190   28.0400   28.0990 O.2    67  LEU67      -0.2864
     59  CB       -17.5200   29.1700   28.4770 C.3    67  LEU67       0.0297
     60  CG       -18.0800   30.4240   27.8430 C.3    67  LEU67       0.0022
     61  CD1      -18.0660   31.5360   28.8500 C.3    67  LEU67       0.0001
     62  CD2      -17.2490   30.8100   26.6740 C.3    67  LEU67       0.0001
     63  N        -22.8850   36.8220   22.0970 N.3   151  PHE151     -0.1241
     64  CA       -22.5340   36.1070   23.3090 C.3   151  PHE151      0.1605
     65  C        -23.5700   36.3430   24.4370 C.2   151  PHE151      0.2264
     66  O        -24.0670   35.3950   25.0670 O.2   151  PHE151     -0.2867
     67  CB       -21.1220   36.5710   23.7170 C.3   151  PHE151      0.0534
     68  CG       -20.5610   35.8710   24.9230 C.ar  151  PHE151     -0.0203
     69  CD1      -20.3340   34.5050   24.9020 C.ar  151  PHE151     -0.0042
     70  CD2      -20.2850   36.5960   26.0980 C.ar  151  PHE151     -0.0042
     71  CE1      -19.8480   33.8690   26.0330 C.ar  151  PHE151     -0.0003
     72  CE2      -19.7970   35.9690   27.2380 C.ar  151  PHE151     -0.0003
     73  CZ       -19.5790   34.6030   27.2100 C.ar  151  PHE151     -0.0000
     74  N         -4.9490   46.6810   26.3420 N.3   243  VAL243     -0.1231
     75  CA        -4.7870   45.2730   26.7300 C.3   243  VAL243      0.1692
     76  C         -4.1730   45.3880   28.1230 C.2   243  VAL243      0.2592
     77  O         -4.5470   44.7170   29.0880 O.2   243  VAL243     -0.2718
     78  CB        -3.8220   44.5780   25.7570 C.3   243  VAL243      0.0266
     79  CG1       -2.7420   43.8340   26.4910 C.3   243  VAL243      0.0020
     80  CG2       -4.5900   43.6450   24.8810 C.3   243  VAL243      0.0020
     81  N         -3.2190   46.2950   28.1790 N.am  244  PHE244     -0.1976
     82  CA        -2.4910   46.7010   29.3630 C.3   244  PHE244      0.1639
     83  C         -3.4990   46.9360   30.5040 C.2   244  PHE244      0.2290
     84  O         -3.2450   46.6120   31.6420 O.2   244  PHE244     -0.2864
     85  CB        -1.7880   47.9950   28.9580 C.3   244  PHE244      0.0560
     86  CG        -1.3070   48.8120   30.0770 C.ar  244  PHE244     -0.0200
     87  CD1       -0.0860   48.5320   30.6600 C.ar  244  PHE244     -0.0042
     88  CD2       -2.0400   49.9040   30.5110 C.ar  244  PHE244     -0.0042
     89  CE1        0.4030   49.3390   31.6630 C.ar  244  PHE244     -0.0003
     90  CE2       -1.5690   50.7120   31.5030 C.ar  244  PHE244     -0.0003
     91  CZ        -0.3420   50.4370   32.0880 C.ar  244  PHE244     -0.0000
     92  N         -6.9200   45.9810   30.0810 N.3   246  ALA246     -0.1231
     93  CA        -7.7760   44.8150   30.1010 C.3   246  ALA246      0.1694
     94  C         -7.1260   43.8360   31.0460 C.2   246  ALA246      0.2591
     95  O         -7.7600   43.3270   31.9640 O.2   246  ALA246     -0.2718
     96  CB        -7.8740   44.2150   28.7140 C.3   246  ALA246      0.0304
     97  N         -5.8400   43.5950   30.8110 N.am  247  ALA247     -0.1980
     98  CA        -5.0390   42.6880   31.6210 C.3   247  ALA247      0.1597
     99  C         -5.1600   42.9730   33.1130 C.2   247  ALA247      0.2287
    100  O         -5.7140   42.1730   33.8660 O.2   247  ALA247     -0.2864
    101  CB        -3.6020   42.7840   31.2070 C.3   247  ALA247      0.0319
    102  N         -8.3540   42.0920   34.7470 N.3   250  VAL250     -0.1245
    103  CA        -8.5070   40.6600   34.8320 C.3   250  VAL250      0.1561
    104  C         -7.7510   40.1040   36.0280 C.2   250  VAL250      0.2260
    105  O         -8.3220   39.3920   36.8510 O.2   250  VAL250     -0.2867
    106  CB        -7.9940   39.9690   33.5960 C.3   250  VAL250      0.0252
    107  CG1       -7.9160   38.5000   33.8590 C.3   250  VAL250      0.0019
    108  CG2       -8.9220   40.2040   32.4520 C.3   250  VAL250      0.0019
    109  N        -16.7270   34.9590   37.0300 N.3   260  THR260     -0.1218
    110  CA       -15.8910   34.9890   35.8700 C.3   260  THR260      0.1862
    111  C        -14.5630   34.5570   36.4410 C.2   260  THR260      0.2287
    112  O        -13.5230   34.6350   35.8110 O.2   260  THR260     -0.2866
    113  CB       -15.7960   36.3550   35.2000 C.3   260  THR260      0.1770
    114  OG1      -15.1100   36.2210   33.9510 O.3   260  THR260     -0.2211
    115  CG2      -15.0770   37.3480   36.0950 C.3   260  THR260      0.0375
    116  N         -2.5390   32.3440   37.7850 N.3   449  PHE449     -0.1241
    117  CA        -3.1680   33.1470   36.7820 C.3   449  PHE449      0.1605
    118  C         -3.0310   34.5730   37.1820 C.2   449  PHE449      0.2264
    119  O         -2.7360   35.4150   36.3530 O.2   449  PHE449     -0.2867
    120  CB        -4.6400   32.8170   36.6730 C.3   449  PHE449      0.0534
    121  CG        -5.3580   33.5610   35.5720 C.ar  449  PHE449     -0.0203
    122  CD1       -5.9610   32.8500   34.5380 C.ar  449  PHE449     -0.0042
    123  CD2       -5.4880   34.9480   35.5970 C.ar  449  PHE449     -0.0042
    124  CE1       -6.6770   33.4930   33.5700 C.ar  449  PHE449     -0.0003
    125  CE2       -6.1970   35.5920   34.6370 C.ar  449  PHE449     -0.0003
    126  CZ        -6.8000   34.8630   33.6170 C.ar  449  PHE449     -0.0000
    127  N         -0.6630   37.2820   34.7020 N.3   453  HIS453     -0.1241
    128  CA        -1.4270   38.4130   34.1950 C.3   453  HIS453      0.1621
    129  C         -1.1100   39.7930   34.7710 C.2   453  HIS453      0.2264
    130  O         -1.2410   40.8040   34.0900 O.2   453  HIS453     -0.2867
    131  CB        -2.9300   38.1130   34.3030 C.3   453  HIS453      0.0745
    132  CG        -3.4050   37.1450   33.2750 C.ar  453  HIS453      0.0817
    133  ND1       -3.3760   35.7830   33.4630 N.ar  453  HIS453     -0.2268
    134  CD2       -3.7720   37.3410   31.9850 C.ar  453  HIS453      0.1154
    135  CE1       -3.6910   35.1810   32.3280 C.ar  453  HIS453      0.1986
    136  NE2       -3.9360   36.1040   31.4130 N.ar  453  HIS453     -0.2212
    137  N          2.5140   40.4000   33.3770 N.3   456  PHE456     -0.1227
    138  CA         2.3600   40.6640   31.9480 C.3   456  PHE456      0.1736
    139  C          1.7790   42.0650   31.7630 C.2   456  PHE456      0.2595
    140  O          2.2950   42.8570   31.0060 O.2   456  PHE456     -0.2718
    141  CB         1.4280   39.6270   31.3110 C.3   456  PHE456      0.0547
    142  CG         2.0650   38.2810   31.0450 C.ar  456  PHE456     -0.0202
    143  CD1        3.3710   38.1830   30.5910 C.ar  456  PHE456     -0.0042
    144  CD2        1.3160   37.1160   31.1560 C.ar  456  PHE456     -0.0042
    145  CE1        3.9080   36.9530   30.2490 C.ar  456  PHE456     -0.0003
    146  CE2        1.8500   35.8820   30.8120 C.ar  456  PHE456     -0.0003
    147  CZ         3.1420   35.8030   30.3600 C.ar  456  PHE456     -0.0000
    148  N          0.6990   42.3630   32.4740 N.am  457  ALA457     -0.1980
    149  CA         0.0520   43.6610   32.3870 C.3   457  ALA457      0.1597
    150  C          1.0230   44.7950   32.6690 C.2   457  ALA457      0.2287
    151  O          1.0000   45.8300   32.0050 O.2   457  ALA457     -0.2864
    152  CB        -1.1010   43.7070   33.3650 C.3   457  ALA457      0.0319
    153  N          3.6740   45.3520   29.8700 N.3   460  PHE460     -0.1241
    154  CA         3.1440   45.9880   28.6680 C.3   460  PHE460      0.1605
    155  C          3.0410   47.4760   28.8180 C.2   460  PHE460      0.2264
    156  O          2.7410   48.1670   27.8660 O.2   460  PHE460     -0.2867
    157  CB         1.7870   45.4060   28.2720 C.3   460  PHE460      0.0534
    158  CG         1.8910   44.2240   27.3660 C.ar  460  PHE460     -0.0203
    159  CD1        1.2400   44.2120   26.1530 C.ar  460  PHE460     -0.0042
    160  CD2        2.6910   43.1430   27.7100 C.ar  460  PHE460     -0.0042
    161  CE1        1.3840   43.1600   25.3000 C.ar  460  PHE460     -0.0003
    162  CE2        2.8440   42.0740   26.8570 C.ar  460  PHE460     -0.0003
    163  CZ         2.1880   42.0820   25.6440 C.ar  460  PHE460     -0.0000
@<TRIPOS>BOND
     1     1     2    1
     2     2     5    1
     3     2     3    1
     4    63    64    1
     5     5     6    1
     6     3     4    2
     7    64    67    1
     8    64    65    1
     9    67    68    1
    10     6     7   ar
    11     6     8   ar
    12    65    66    2
    13     7     9   ar
    14    80    78    1
    15    69    68   ar
    16    69    71   ar
    17    68    70   ar
    18     8    11   ar
    19     8    10   ar
    20    11    13   ar
    21   161   163   ar
    22   161   159   ar
    23   163   162   ar
    24    78    79    1
    25    78    75    1
    26     9    10   ar
    27    71    73   ar
    28    70    72   ar
    29   159   158   ar
    30    10    12   ar
    31    74    75    1
    32    13    14   ar
    33    62    60    1
    34    75    76    1
    35   162   160   ar
    36    73    72   ar
    37   158   160   ar
    38   158   157    1
    39    12    14   ar
    40    60    59    1
    41    60    61    1
    42   156   155    2
    43    58    57    2
    44    76    81   am
    45    76    77    2
    46    81    82    1
    47   157   154    1
    48    59    56    1
    49    31    30    1
    50   154   155    1
    51   154   153    1
    52    96    93    1
    53    32    30    1
    54    85    82    1
    55    85    86    1
    56    57    56    1
    57    82    83    1
    58    30    27    1
    59    56    55    1
    60    86    88   ar
    61    86    87   ar
    62    92    93    1
    63    93    94    1
    64   145   147   ar
    65   145   143   ar
    66   147   146   ar
    67    37    38    1
    68    37    34    1
    69    83    84    2
    70    88    90   ar
    71   143   142   ar
    72    35    36    2
    73    35    34    1
    74    27    28    1
    75    27    26    1
    76    87    89   ar
    77    29    28    2
    78    55    46   am
    79    97    94   am
    80    97    98    1
    81   146   144   ar
    82   140   139    2
    83   142   144   ar
    84   142   141    1
    85    94    95    2
    86   101    98    1
    87    38    40   ar
    88    38    39   ar
    89   141   138    1
    90    34    33    1
    91    24    22   ar
    92    24    25   ar
    93   136   134   ar
    94   136   135   ar
    95    40    42   ar
    96    90    91   ar
    97    98    99    1
    98    54    52    1
    99    89    91   ar
   100    26    17   am
   101   139   138    1
   102   139   148   am
   103    22    20   ar
   104    39    41   ar
   105    46    47    2
   106    46    45    1
   107   138   137    1
   108   134   132   ar
   109   151   150    2
   110    25    23   ar
   111    42    43   ar
   112    51    52    2
   113    51    50    1
   114   135   133   ar
   115   149   148    1
   116   149   150    1
   117   149   152    1
   118   108   106    1
   119    49    50    1
   120    49    48    1
   121    52    53    1
   122    41    43   ar
   123    44    45    1
   124    20    19    1
   125    20    21   ar
   126    17    18    2
   127    17    16    1
   128    45    48    1
   129    99   100    2
   130   132   133   ar
   131   132   131    1
   132    23    21   ar
   133    19    16    1
   134   124   126   ar
   135   124   122   ar
   136   106   107    1
   137   106   103    1
   138   126   125   ar
   139   114   113    1
   140    16    15    1
   141   130   129    2
   142   128   131    1
   143   128   127    1
   144   128   129    1
   145   122   121   ar
   146   125   123   ar
   147   102   103    1
   148   103   104    1
   149   113   110    1
   150   113   115    1
   151   121   123   ar
   152   121   120    1
   153   112   111    2
   154   110   111    1
   155   110   109    1
   156   104   105    2
   157   119   118    2
   158   120   117    1
   159   117   118    1
   160   117   116    1
