@<TRIPOS>MOLECULE
tmp/1w5cB08.pdb
 135 125 0 0 0
SMALL
GASTEIGER

@<TRIPOS>ATOM
      1  N        -16.5060   26.5360   32.8820 N.3    66  ARG66      -0.1231
      2  CA       -17.4140   27.6240   33.0840 C.3    66  ARG66       0.1694
      3  C        -18.2350   27.9900   31.8840 C.2    66  ARG66       0.2591
      4  O        -19.4440   27.9580   31.9650 O.2    66  ARG66      -0.2718
      5  CB       -16.6710   28.8610   33.6030 C.3    66  ARG66       0.0321
      6  CG       -16.1640   29.8290   32.5660 C.3    66  ARG66       0.0489
      7  CD       -15.5210   31.0310   33.2500 C.3    66  ARG66       0.2205
      8  NE       -14.8630   31.8880   32.2860 N.pl3  66  ARG66      -0.0865
      9  CZ       -14.1830   32.9730   32.5980 C.cat  66  ARG66       0.5346
     10  NH1      -14.0530   33.3520   33.8510 N.pl3  66  ARG66       0.1354
     11  NH2      -13.6480   33.6860   31.6370 N.pl3  66  ARG66       0.1354
     12  N        -17.6170   28.3190   30.7640 N.am   67  LEU67      -0.1980
     13  CA       -18.4140   28.7310   29.6160 C.3    67  LEU67       0.1596
     14  C        -19.4360   27.7360   29.0770 C.2    67  LEU67       0.2287
     15  O        -20.1190   28.0400   28.0990 O.2    67  LEU67      -0.2864
     16  CB       -17.5200   29.1700   28.4770 C.3    67  LEU67       0.0297
     17  CG       -18.0800   30.4240   27.8430 C.3    67  LEU67       0.0022
     18  CD1      -18.0660   31.5360   28.8500 C.3    67  LEU67       0.0001
     19  CD2      -17.2490   30.8100   26.6740 C.3    67  LEU67       0.0001
     20  N        -16.6350   43.0350   16.3960 N.3   144  ALA144     -0.1245
     21  CA       -16.3730   42.8470   17.8120 C.3   144  ALA144      0.1562
     22  C        -17.6620   43.0940   18.5310 C.2   144  ALA144      0.2260
     23  O        -18.1190   42.2750   19.2990 O.2   144  ALA144     -0.2867
     24  CB       -15.3280   43.8210   18.2870 C.3   144  ALA144      0.0290
     25  N        -20.4650   40.6770   17.9000 N.3   147  LEU147     -0.1231
     26  CA       -20.0230   39.4950   18.6220 C.3   147  LEU147      0.1693
     27  C        -20.2990   39.6090   20.1260 C.2   147  LEU147      0.2592
     28  O        -20.9320   38.7390   20.7220 O.2   147  LEU147     -0.2718
     29  CB       -18.5310   39.2860   18.3590 C.3   147  LEU147      0.0284
     30  CG       -18.0020   37.8540   18.4690 C.3   147  LEU147      0.0019
     31  CD1      -18.7990   36.9410   17.5590 C.3   147  LEU147      0.0001
     32  CD2      -16.5190   37.8150   18.1190 C.3   147  LEU147      0.0001
     33  N        -19.8220   40.6760   20.7500 N.am  148  CYS148     -0.1970
     34  CA       -20.0570   40.8660   22.1750 C.3   148  CYS148      0.1712
     35  C        -21.5310   40.6330   22.4200 C.2   148  CYS148      0.2296
     36  O        -21.9270   39.7970   23.2370 O.2   148  CYS148     -0.2864
     37  CB       -19.6980   42.2840   22.5780 C.3   148  CYS148      0.0983
     38  SG       -20.1120   42.6620   24.2650 S.3   148  CYS148     -0.0798
     39  N        -22.8850   36.8220   22.0970 N.3   151  PHE151     -0.1241
     40  CA       -22.5340   36.1070   23.3090 C.3   151  PHE151      0.1605
     41  C        -23.5700   36.3430   24.4370 C.2   151  PHE151      0.2264
     42  O        -24.0670   35.3950   25.0670 O.2   151  PHE151     -0.2867
     43  CB       -21.1220   36.5710   23.7170 C.3   151  PHE151      0.0534
     44  CG       -20.5610   35.8710   24.9230 C.ar  151  PHE151     -0.0203
     45  CD1      -20.3340   34.5050   24.9020 C.ar  151  PHE151     -0.0042
     46  CD2      -20.2850   36.5960   26.0980 C.ar  151  PHE151     -0.0042
     47  CE1      -19.8480   33.8690   26.0330 C.ar  151  PHE151     -0.0003
     48  CE2      -19.7970   35.9690   27.2380 C.ar  151  PHE151     -0.0003
     49  CZ       -19.5790   34.6030   27.2100 C.ar  151  PHE151     -0.0000
     50  N        -25.0580   33.3030   27.0340 N.3   156  LEU156     -0.1245
     51  CA       -25.3190   33.4460   28.4640 C.3   156  LEU156      0.1561
     52  C        -26.8270   33.3640   28.7680 C.2   156  LEU156      0.2260
     53  O        -27.2680   32.4910   29.5210 O.2   156  LEU156     -0.2867
     54  CB       -24.7660   34.7540   28.9730 C.3   156  LEU156      0.0270
     55  CG       -23.2960   35.0100   28.6270 C.3   156  LEU156      0.0019
     56  CD1      -22.9290   36.4710   28.8350 C.3   156  LEU156      0.0001
     57  CD2      -22.3780   34.1080   29.4310 C.3   156  LEU156      0.0001
     58  N        -23.3250   29.5150   31.9150 N.3   164  MET164     -0.1245
     59  CA       -22.0930   29.7270   32.6180 C.3   164  MET164      0.1570
     60  C        -22.1490   29.0950   34.0020 C.2   164  MET164      0.2261
     61  O        -23.2040   28.6430   34.4560 O.2   164  MET164     -0.2867
     62  CB       -21.8320   31.2190   32.7420 C.3   164  MET164      0.0387
     63  CG       -23.0400   32.0190   33.2010 C.3   164  MET164      0.0595
     64  SD       -22.7010   33.7930   33.2560 S.3   164  MET164     -0.1393
     65  CE       -21.1280   33.8210   34.1090 C.3   164  MET164      0.0692
     66  N        -22.5840   40.2400   34.3380 N.3   196  VAL196     -0.1245
     67  CA       -21.9940   39.5110   33.2460 C.3   196  VAL196      0.1561
     68  C        -22.8430   39.5110   31.9880 C.2   196  VAL196      0.2260
     69  O        -22.3860   39.9560   30.9520 O.2   196  VAL196     -0.2867
     70  CB       -21.7480   38.0930   33.6580 C.3   196  VAL196      0.0252
     71  CG1      -21.1130   37.3370   32.5430 C.3   196  VAL196      0.0019
     72  CG2      -20.8790   38.0880   34.8770 C.3   196  VAL196      0.0019
     73  N        -24.3160   43.3570   30.7580 N.3   199  HIS199     -0.1226
     74  CA       -23.1540   44.0760   30.2490 C.3   199  HIS199      0.1752
     75  C        -22.9000   43.7980   28.7960 C.2   199  HIS199      0.2596
     76  O        -22.8170   44.7090   27.9840 O.2   199  HIS199     -0.2718
     77  CB       -21.8920   43.6570   30.9970 C.3   199  HIS199      0.0759
     78  CG       -20.6300   43.9610   30.2580 C.ar  199  HIS199      0.0818
     79  ND1      -19.8870   45.0980   30.4900 N.ar  199  HIS199     -0.2268
     80  CD2      -20.0010   43.2920   29.2620 C.ar  199  HIS199      0.1154
     81  CE1      -18.8530   45.1160   29.6660 C.ar  199  HIS199      0.1986
     82  NE2      -18.8990   44.0320   28.9090 N.ar  199  HIS199     -0.2212
     83  N        -22.7290   42.5310   28.4750 N.am  200  HIS200     -0.1975
     84  CA       -22.4570   42.1690   27.1100 C.3   200  HIS200      0.1656
     85  C        -23.5780   42.5460   26.1350 C.2   200  HIS200      0.2291
     86  O        -23.3090   43.0410   25.0370 O.2   200  HIS200     -0.2864
     87  CB       -22.1300   40.6770   27.0510 C.3   200  HIS200      0.0771
     88  CG       -20.7980   40.3280   27.6440 C.ar  200  HIS200      0.0820
     89  ND1      -19.7170   41.1810   27.5890 N.ar  200  HIS200     -0.2267
     90  CD2      -20.3460   39.1860   28.2160 C.ar  200  HIS200      0.1154
     91  CE1      -18.6550   40.5770   28.0930 C.ar  200  HIS200      0.1986
     92  NE2      -19.0090   39.3640   28.4790 N.ar  200  HIS200     -0.2212
     93  N        -23.2610   46.5300   25.9710 N.3   203  ALA203     -0.1245
     94  CA       -21.9940   46.8210   25.3000 C.3   203  ALA203      0.1562
     95  C        -22.1280   46.4110   23.8510 C.2   203  ALA203      0.2260
     96  O        -21.9050   47.2090   22.9430 O.2   203  ALA203     -0.2867
     97  CB       -20.8620   46.0550   25.9400 C.3   203  ALA203      0.0290
     98  N         -6.9200   45.9810   30.0810 N.3   246  ALA246     -0.1245
     99  CA        -7.7760   44.8150   30.1010 C.3   246  ALA246      0.1562
    100  C         -7.1260   43.8360   31.0460 C.2   246  ALA246      0.2260
    101  O         -7.7600   43.3270   31.9640 O.2   246  ALA246     -0.2867
    102  CB        -7.8740   44.2150   28.7140 C.3   246  ALA246      0.0290
    103  N         -7.1160   44.6400   35.0690 N.3   249  VAL249     -0.1231
    104  CA        -8.3780   44.3030   35.7120 C.3   249  VAL249      0.1692
    105  C         -8.5570   42.8130   35.8320 C.2   249  VAL249      0.2591
    106  O         -8.8800   42.3120   36.8940 O.2   249  VAL249     -0.2718
    107  CB        -9.5640   44.8380   34.9510 C.3   249  VAL249      0.0266
    108  CG1       -9.9280   46.2040   35.4900 C.3   249  VAL249      0.0020
    109  CG2       -9.2370   44.8930   33.4740 C.3   249  VAL249      0.0020
    110  N         -8.3540   42.0920   34.7470 N.am  250  VAL250     -0.1980
    111  CA        -8.5070   40.6600   34.8320 C.3   250  VAL250      0.1595
    112  C         -7.7510   40.1040   36.0280 C.2   250  VAL250      0.2287
    113  O         -8.3220   39.3920   36.8510 O.2   250  VAL250     -0.2864
    114  CB        -7.9940   39.9690   33.5960 C.3   250  VAL250      0.0276
    115  CG1       -7.9160   38.5000   33.8590 C.3   250  VAL250      0.0022
    116  CG2       -8.9220   40.2040   32.4520 C.3   250  VAL250      0.0022
    117  N         -9.8900   40.7630   39.3220 N.3   253  THR253     -0.1218
    118  CA       -11.0310   39.8990   39.5950 C.3   253  THR253      0.1862
    119  C        -10.7400   38.4090   39.7860 C.2   253  THR253      0.2287
    120  O        -11.5290   37.6950   40.4190 O.2   253  THR253     -0.2866
    121  CB       -12.0800   40.0270   38.5350 C.3   253  THR253      0.1770
    122  OG1      -11.5720   39.4980   37.3140 O.3   253  THR253     -0.2211
    123  CG2      -12.4660   41.4750   38.3800 C.3   253  THR253      0.0375
    124  N        -17.7550   35.2560   39.4920 N.3   259  ALA259     -0.1231
    125  CA       -18.6960   35.0260   38.3950 C.3   259  ALA259      0.1694
    126  C        -18.0280   35.1240   37.0220 C.2   259  ALA259      0.2592
    127  O        -18.6890   35.3530   36.0010 O.2   259  ALA259     -0.2718
    128  CB       -19.8480   36.0180   38.4790 C.3   259  ALA259      0.0304
    129  N        -16.7270   34.9590   37.0300 N.am  260  THR260     -0.1953
    130  CA       -15.8910   34.9890   35.8700 C.3   260  THR260      0.1897
    131  C        -14.5630   34.5570   36.4410 C.2   260  THR260      0.2313
    132  O        -13.5230   34.6350   35.8110 O.2   260  THR260     -0.2863
    133  CB       -15.7960   36.3550   35.2000 C.3   260  THR260      0.1794
    134  OG1      -15.1100   36.2210   33.9510 O.3   260  THR260     -0.2208
    135  CG2      -15.0770   37.3480   36.0950 C.3   260  THR260      0.0378
@<TRIPOS>BOND
     1    20    21    1
     2    31    30    1
     3    21    24    1
     4    21    22    1
     5    25    26    1
     6    32    30    1
     7    29    30    1
     8    29    26    1
     9    22    23    2
    10    26    27    1
    11    27    28    2
    12    27    33   am
    13    33    34    1
    14    39    40    1
    15    34    35    1
    16    34    37    1
    17    35    36    2
    18    37    38    1
    19    96    95    2
    20    40    43    1
    21    40    41    1
    22    43    44    1
    23    95    94    1
    24    41    42    2
    25    45    44   ar
    26    45    47   ar
    27    44    46   ar
    28    86    85    2
    29    94    97    1
    30    94    93    1
    31    47    49   ar
    32    46    48   ar
    33    85    84    1
    34    19    17    1
    35    50    51    1
    36    87    84    1
    37    87    88    1
    38    84    83    1
    39    49    48   ar
    40    89    88   ar
    41    89    91   ar
    42    88    90   ar
    43    17    16    1
    44    17    18    1
    45    76    75    2
    46    91    92   ar
    47    15    14    2
    48    90    92   ar
    49    51    52    1
    50    51    54    1
    51    83    75   am
    52    16    13    1
    53    55    56    1
    54    55    54    1
    55    55    57    1
    56   102    99    1
    57    52    53    2
    58    75    74    1
    59    82    80   ar
    60    82    81   ar
    61    14    13    1
    62    80    78   ar
    63    13    12    1
    64    81    79   ar
    65    98    99    1
    66    99   100    1
    67    74    73    1
    68    74    77    1
    69    78    79   ar
    70    78    77    1
    71    12     3   am
    72    69    68    2
    73   100   101    2
    74    11     9    1
    75     3     4    2
    76     3     2    1
    77    58    59    1
    78    68    67    1
    79     8     9    2
    80     8     7    1
    81   116   114    1
    82    71    70    1
    83     6     7    1
    84     6     5    1
    85     9    10    1
    86    59    62    1
    87    59    60    1
    88    62    63    1
    89     1     2    1
    90     2     5    1
    91    63    64    1
    92    67    70    1
    93    67    66    1
    94    64    65    1
    95   109   107    1
    96   114   115    1
    97   114   111    1
    98    70    72    1
    99   134   133    1
   100    60    61    2
   101   110   111    1
   102   110   105   am
   103   111   112    1
   104   107   108    1
   105   107   104    1
   106   103   104    1
   107   133   130    1
   108   133   135    1
   109   104   105    1
   110   132   131    2
   111   105   106    2
   112   130   131    1
   113   130   129    1
   114   127   126    2
   115   112   113    2
   116   126   129   am
   117   126   125    1
   118   122   121    1
   119   123   121    1
   120   125   128    1
   121   125   124    1
   122   121   118    1
   123   117   118    1
   124   118   119    1
   125   119   120    2
