@<TRIPOS>MOLECULE
tmp/1w5cI06.pdb
 132 126 0 0 0
SMALL
GASTEIGER

@<TRIPOS>ATOM
      1  N         -4.2830  -23.4520  -27.7930 N.3    37  ALA37      -0.1245
      2  CA        -5.5620  -23.9840  -27.4080 C.3    37  ALA37       0.1562
      3  C         -5.3510  -25.4670  -27.1800 C.2    37  ALA37       0.2260
      4  O         -5.2810  -25.9210  -26.0390 O.2    37  ALA37      -0.2867
      5  CB        -6.5520  -23.7680  -28.4950 C.3    37  ALA37       0.0290
      6  N         -3.7400  -26.9740  -24.2590 N.3    40  ILE40      -0.1231
      7  CA        -4.4240  -27.1330  -22.9700 C.3    40  ILE40       0.1692
      8  C         -5.2410  -28.4120  -23.0670 C.2    40  ILE40       0.2591
      9  O         -5.2580  -29.2290  -22.1460 O.2    40  ILE40      -0.2718
     10  CB        -5.4360  -25.9970  -22.6480 C.3    40  ILE40       0.0266
     11  CG1       -4.8100  -24.6140  -22.7730 C.3    40  ILE40       0.0019
     12  CG2       -5.9060  -26.1560  -21.2280 C.3    40  ILE40       0.0020
     13  CD1       -5.8050  -23.4950  -22.5490 C.3    40  ILE40       0.0001
     14  N         -5.9420  -28.5530  -24.1930 N.am   41  VAL41      -0.1980
     15  CA        -6.7700  -29.7200  -24.4440 C.3    41  VAL41       0.1595
     16  C         -5.8580  -30.8660  -24.1610 C.2    41  VAL41       0.2287
     17  O         -6.1790  -31.7630  -23.4010 O.2    41  VAL41      -0.2864
     18  CB        -7.1940  -29.8250  -25.9110 C.3    41  VAL41       0.0276
     19  CG1       -7.8730  -31.1470  -26.1500 C.3    41  VAL41       0.0022
     20  CG2       -8.1250  -28.7020  -26.2620 C.3    41  VAL41       0.0022
     21  N         -3.0100  -31.1640  -22.4240 N.3    43  TRP43      -0.1227
     22  CA        -2.7590  -31.2750  -20.9850 C.3    43  TRP43       0.1737
     23  C         -3.9020  -31.9860  -20.2740 C.2    43  TRP43       0.2595
     24  O         -3.7090  -33.0250  -19.6160 O.2    43  TRP43      -0.2718
     25  CB        -2.5830  -29.8900  -20.3760 C.3    43  TRP43       0.0564
     26  CG        -2.2610  -29.9260  -18.9240 C.ar   43  TRP43       0.0003
     27  CD1       -1.0430  -30.1550  -18.3700 C.ar   43  TRP43       0.0946
     28  CD2       -3.1760  -29.7590  -17.8390 C.ar   43  TRP43       0.0152
     29  NE1       -1.1440  -30.1390  -17.0090 N.ar   43  TRP43      -0.2442
     30  CE2       -2.4420  -29.8990  -16.6520 C.ar   43  TRP43       0.0810
     31  CE3       -4.5490  -29.5070  -17.7570 C.ar   43  TRP43       0.0012
     32  CZ2       -3.0300  -29.7990  -15.3950 C.ar   43  TRP43       0.0191
     33  CZ3       -5.1330  -29.4090  -16.5080 C.ar   43  TRP43       0.0001
     34  CH2       -4.3730  -29.5560  -15.3440 C.ar   43  TRP43       0.0015
     35  N         -5.0940  -31.4120  -20.4240 N.am   44  ALA44      -0.1980
     36  CA        -6.3070  -31.9500  -19.8220 C.3    44  ALA44       0.1597
     37  C         -6.3040  -33.4680  -19.9550 C.2    44  ALA44       0.2287
     38  O         -6.2480  -34.1750  -18.9670 O.2    44  ALA44      -0.2864
     39  CB        -7.5290  -31.3530  -20.5030 C.3    44  ALA44       0.0319
     40  N         -5.7590  -36.2500  -16.7490 N.3    48  THR48      -0.1218
     41  CA        -6.7970  -37.1570  -16.2650 C.3    48  THR48       0.1862
     42  C         -6.2390  -38.5720  -16.2690 C.2    48  THR48       0.2287
     43  O         -6.3310  -39.2840  -15.2700 O.2    48  THR48      -0.2866
     44  CB        -8.0330  -37.1450  -17.1550 C.3    48  THR48       0.1770
     45  OG1       -7.6160  -37.2010  -18.5260 O.3    48  THR48      -0.2211
     46  CG2       -8.8700  -35.9140  -16.9070 C.3    48  THR48       0.0375
     47  N         -7.6350  -33.1080  -11.0370 N.3    68  LEU68      -0.1245
     48  CA        -8.7050  -33.2600  -12.0170 C.3    68  LEU68       0.1561
     49  C         -9.9650  -34.0740  -11.7020 C.2    68  LEU68       0.2260
     50  O        -11.0830  -33.5260  -11.6300 O.2    68  LEU68      -0.2867
     51  CB        -8.1060  -33.8260  -13.2960 C.3    68  LEU68       0.0270
     52  CG        -7.1450  -32.8920  -14.0640 C.3    68  LEU68       0.0019
     53  CD1       -6.7220  -33.5690  -15.3540 C.3    68  LEU68       0.0001
     54  CD2       -7.7500  -31.5640  -14.3590 C.3    68  LEU68       0.0001
     55  N        -13.2440  -32.9560  -10.3760 N.3    71  HIS71      -0.1226
     56  CA       -14.0680  -32.1230  -11.2260 C.3    71  HIS71       0.1752
     57  C        -15.1250  -32.9550  -11.8920 C.2    71  HIS71       0.2595
     58  O        -16.3280  -32.6750  -11.7830 O.2    71  HIS71      -0.2718
     59  CB       -13.2250  -31.4440  -12.2900 C.3    71  HIS71       0.0759
     60  CG       -12.5210  -30.2220  -11.7970 C.ar   71  HIS71       0.0818
     61  ND1      -13.1760  -29.0340  -11.5450 N.ar   71  HIS71      -0.2268
     62  CD2      -11.2330  -30.0280  -11.4280 C.ar   71  HIS71       0.1154
     63  CE1      -12.3240  -28.1660  -11.0350 C.ar   71  HIS71       0.1986
     64  NE2      -11.1380  -28.7420  -10.9540 N.ar   71  HIS71      -0.2212
     65  N        -14.6640  -33.9730  -12.6030 N.am   72  ILE72      -0.1980
     66  CA       -15.5810  -34.8690  -13.2730 C.3    72  ILE72       0.1595
     67  C        -16.6240  -35.2580  -12.2200 C.2    72  ILE72       0.2287
     68  O        -17.8150  -34.9720  -12.3730 O.2    72  ILE72      -0.2864
     69  CB       -14.8480  -36.1320  -13.7700 C.3    72  ILE72       0.0276
     70  CG1      -13.7260  -35.7510  -14.7250 C.3    72  ILE72       0.0022
     71  CG2      -15.8190  -37.0330  -14.4900 C.3    72  ILE72       0.0022
     72  CD1      -14.2240  -35.1070  -15.9870 C.3    72  ILE72       0.0001
     73  N        -19.5590  -33.0570  -11.3780 N.3    75  LEU75      -0.1245
     74  CA       -20.4510  -33.0340  -12.5150 C.3    75  LEU75       0.1561
     75  C        -21.5990  -34.0420  -12.4660 C.2    75  LEU75       0.2260
     76  O        -22.7440  -33.7090  -12.8020 O.2    75  LEU75      -0.2867
     77  CB       -19.6520  -33.2740  -13.7770 C.3    75  LEU75       0.0270
     78  CG       -19.9590  -32.1810  -14.7710 C.3    75  LEU75       0.0019
     79  CD1      -19.6490  -30.8220  -14.1390 C.3    75  LEU75       0.0001
     80  CD2      -19.1530  -32.4360  -16.0290 C.3    75  LEU75       0.0001
     81  N        -20.6490  -38.0010  -12.3420 N.3    77  TRP77      -0.1241
     82  CA       -20.0510  -39.2370  -12.8590 C.3    77  TRP77       0.1605
     83  C        -19.3610  -39.8780  -11.6790 C.2    77  TRP77       0.2264
     84  O        -19.4350  -39.3440  -10.5780 O.2    77  TRP77      -0.2867
     85  CB       -19.0210  -38.9410  -13.9540 C.3    77  TRP77       0.0550
     86  CG       -19.5960  -38.8860  -15.3560 C.ar   77  TRP77       0.0003
     87  CD1      -20.1430  -39.9250  -16.0650 C.ar   77  TRP77       0.0946
     88  CD2      -19.6970  -37.7300  -16.2060 C.ar   77  TRP77       0.0152
     89  NE1      -20.5750  -39.4840  -17.3000 N.ar   77  TRP77      -0.2442
     90  CE2      -20.3160  -38.1440  -17.4120 C.ar   77  TRP77       0.0810
     91  CE3      -19.3260  -36.3800  -16.0650 C.ar   77  TRP77       0.0012
     92  CZ2      -20.5740  -37.2620  -18.4670 C.ar   77  TRP77       0.0191
     93  CZ3      -19.5820  -35.4960  -17.1240 C.ar   77  TRP77       0.0001
     94  CH2      -20.2020  -35.9470  -18.3070 C.ar   77  TRP77       0.0015
     95  N        -13.0690  -38.8730  -20.6930 N.3    94  VAL94      -0.1245
     96  CA       -12.6930  -37.4830  -20.8570 C.3    94  VAL94       0.1561
     97  C        -11.2350  -37.4260  -21.1830 C.2    94  VAL94       0.2260
     98  O        -10.7790  -36.4900  -21.8420 O.2    94  VAL94      -0.2867
     99  CB       -12.9060  -36.6940  -19.6160 C.3    94  VAL94       0.0252
    100  CG1      -14.3750  -36.5990  -19.3420 C.3    94  VAL94       0.0019
    101  CG2      -12.1700  -37.3470  -18.4750 C.3    94  VAL94       0.0019
    102  N        -10.7060  -38.4260  -25.1190 N.3    97  VAL97      -0.1231
    103  CA       -11.3820  -37.3340  -25.8130 C.3    97  VAL97       0.1692
    104  C        -10.4250  -36.1790  -26.0610 C.2    97  VAL97       0.2592
    105  O        -10.0480  -35.9210  -27.2120 O.2    97  VAL97      -0.2718
    106  CB       -12.5960  -36.8130  -25.0210 C.3    97  VAL97       0.0266
    107  CG1      -13.3270  -35.7210  -25.8310 C.3    97  VAL97       0.0020
    108  CG2      -13.5360  -37.9820  -24.6950 C.3    97  VAL97       0.0020
    109  N        -10.0090  -35.5080  -24.9820 N.am   98  HIS98      -0.1976
    110  CA        -9.0830  -34.3770  -25.0940 C.3    98  HIS98       0.1656
    111  C         -7.7520  -34.7150  -25.7700 C.2    98  HIS98       0.2291
    112  O         -7.3320  -34.0290  -26.7140 O.2    98  HIS98      -0.2864
    113  CB        -8.7740  -33.7770  -23.7260 C.3    98  HIS98       0.0771
    114  CG        -9.9420  -33.1150  -23.0760 C.ar   98  HIS98       0.0820
    115  ND1      -10.9810  -33.8280  -22.5260 N.ar   98  HIS98      -0.2267
    116  CD2      -10.2320  -31.8040  -22.8710 C.ar   98  HIS98       0.1154
    117  CE1      -11.8610  -32.9850  -22.0060 C.ar   98  HIS98       0.1986
    118  NE2      -11.4330  -31.7510  -22.2020 N.ar   98  HIS98      -0.2212
    119  N         -8.8620  -34.9660  -29.1930 N.3   101  SER101     -0.1217
    120  CA        -9.4000  -33.6430  -29.5060 C.3   101  SER101      0.1889
    121  C         -8.3020  -32.6070  -29.7110 C.2   101  SER101      0.2288
    122  O         -8.5150  -31.5580  -30.3230 O.2   101  SER101     -0.2866
    123  CB       -10.3280  -33.2140  -28.3650 C.3   101  SER101      0.2089
    124  OG       -10.9060  -31.9510  -28.6240 O.3   101  SER101     -0.2183
    125  N        -25.0020  -26.5090  -21.4160 N.3   154  LEU154     -0.1245
    126  CA       -24.6080  -27.9260  -21.4180 C.3   154  LEU154      0.1561
    127  C        -24.5960  -28.4640  -19.9970 C.2   154  LEU154      0.2260
    128  O        -25.0930  -29.5600  -19.7350 O.2   154  LEU154     -0.2867
    129  CB       -23.2220  -28.1190  -22.0480 C.3   154  LEU154      0.0270
    130  CG       -23.1100  -27.8350  -23.5540 C.3   154  LEU154      0.0019
    131  CD1      -21.7180  -28.1730  -24.0240 C.3   154  LEU154      0.0001
    132  CD2      -24.1170  -28.6720  -24.3390 C.3   154  LEU154      0.0001
@<TRIPOS>BOND
     1   122   121    2
     2   121   120    1
     3   120   119    1
     4   120   123    1
     5   124   123    1
     6     5     2    1
     7     1     2    1
     8     2     3    1
     9   105   104    2
    10     3     4    2
    11   112   111    2
    12    20    18    1
    13    19    18    1
    14   104   103    1
    15   104   109   am
    16    18    15    1
    17   107   106    1
    18   103   102    1
    19   103   106    1
    20   111   110    1
    21   110   109    1
    22   110   113    1
    23   106   108    1
    24    15    14    1
    25    15    16    1
    26   132   130    1
    27     6     7    1
    28    14     8   am
    29    16    17    2
    30   131   130    1
    31   113   114    1
    32   130   129    1
    33   114   116   ar
    34   114   115   ar
    35     8     7    1
    36     8     9    2
    37     7    10    1
    38   116   118   ar
    39    11    10    1
    40    11    13    1
    41    10    12    1
    42   115   117   ar
    43    21    22    1
    44   118   117   ar
    45   129   126    1
    46    98    97    2
    47   126   125    1
    48   126   127    1
    49    97    96    1
    50    22    25    1
    51    22    23    1
    52    96    95    1
    53    96    99    1
    54    39    36    1
    55    35    23   am
    56    35    36    1
    57    25    26    1
    58    23    24    2
    59   127   128    2
    60    37    36    1
    61    37    38    2
    62    99   100    1
    63    99   101    1
    64    26    27   ar
    65    26    28   ar
    66    45    44    1
    67    92    94   ar
    68    92    90   ar
    69    27    29   ar
    70    94    93   ar
    71    28    31   ar
    72    28    30   ar
    73    31    33   ar
    74    90    89   ar
    75    90    88   ar
    76    89    87   ar
    77    44    46    1
    78    44    41    1
    79    93    91   ar
    80    29    30   ar
    81    40    41    1
    82    30    32   ar
    83    33    34   ar
    84    42    41    1
    85    42    43    2
    86    88    91   ar
    87    88    86   ar
    88    87    86   ar
    89    80    78    1
    90    72    70    1
    91    32    34   ar
    92    86    85    1
    93    53    52    1
    94    78    79    1
    95    78    77    1
    96    70    69    1
    97    71    69    1
    98    54    52    1
    99    52    51    1
   100    85    82    1
   101    77    74    1
   102    69    66    1
   103    51    48    1
   104    66    65    1
   105    66    67    1
   106    82    81    1
   107    82    83    1
   108    76    75    2
   109    65    57   am
   110    74    75    1
   111    74    73    1
   112    68    67    2
   113    59    60    1
   114    59    56    1
   115    48    49    1
   116    48    47    1
   117    57    58    2
   118    57    56    1
   119    60    61   ar
   120    60    62   ar
   121    49    50    2
   122    83    84    2
   123    61    63   ar
   124    62    64   ar
   125    56    55    1
   126    63    64   ar
