@<TRIPOS>MOLECULE
tmp/1w5cI02.pdb
 108 104 0 0 0
SMALL
GASTEIGER

@<TRIPOS>ATOM
      1  N         -3.6540  -16.9550  -35.7130 N.3    30  LEU30      -0.1245
      2  CA        -4.7110  -17.9590  -35.6650 C.3    30  LEU30       0.1561
      3  C         -4.2070  -19.2280  -35.0070 C.2    30  LEU30       0.2260
      4  O         -4.6730  -19.6210  -33.9300 O.2    30  LEU30      -0.2867
      5  CB        -5.2740  -18.2780  -37.0320 C.3    30  LEU30       0.0270
      6  CG        -6.6830  -18.8080  -36.9880 C.3    30  LEU30       0.0019
      7  CD1       -7.6810  -17.6800  -36.7310 C.3    30  LEU30       0.0001
      8  CD2       -7.0270  -19.5450  -38.2840 C.3    30  LEU30       0.0001
      9  N         -4.4770  -21.3070  -32.1520 N.3    34  VAL34      -0.1245
     10  CA        -5.0490  -22.6630  -32.2780 C.3    34  VAL34       0.1561
     11  C         -4.2320  -23.6760  -31.4790 C.2    34  VAL34       0.2260
     12  O         -4.7500  -24.2830  -30.5340 O.2    34  VAL34      -0.2867
     13  CB        -5.0810  -23.1760  -33.7230 C.3    34  VAL34       0.0252
     14  CG1       -5.7460  -24.5230  -33.7560 C.3    34  VAL34       0.0019
     15  CG2       -5.8160  -22.2190  -34.6080 C.3    34  VAL34       0.0019
     16  N         -6.1270  -32.9320  -33.1470 N.3   104  VAL104     -0.1231
     17  CA        -7.0990  -32.2880  -34.0060 C.3   104  VAL104      0.1692
     18  C         -6.7870  -30.8090  -34.0280 C.2   104  VAL104      0.2591
     19  O         -6.7770  -30.1720  -35.0770 O.2   104  VAL104     -0.2718
     20  CB        -8.5170  -32.5200  -33.4630 C.3   104  VAL104      0.0266
     21  CG1       -9.4740  -31.4090  -33.9310 C.3   104  VAL104      0.0020
     22  CG2       -8.9960  -33.8850  -33.9020 C.3   104  VAL104      0.0020
     23  N         -6.5300  -30.2530  -32.8610 N.am  105  LEU105     -0.1980
     24  CA        -6.2080  -28.8580  -32.8380 C.3   105  LEU105      0.1596
     25  C         -4.7910  -28.7730  -33.3500 C.2   105  LEU105      0.2287
     26  O         -4.5510  -28.2130  -34.4270 O.2   105  LEU105     -0.2864
     27  CB        -6.3320  -28.3180  -31.4220 C.3   105  LEU105      0.0297
     28  CG        -7.7920  -28.2750  -30.9590 C.3   105  LEU105      0.0022
     29  CD1       -7.9010  -27.7910  -29.5430 C.3   105  LEU105      0.0001
     30  CD2       -8.5600  -27.3490  -31.8600 C.3   105  LEU105      0.0001
     31  N         -2.7260  -30.1560  -35.1920 N.3   107  PHE107     -0.1227
     32  CA        -2.5330  -30.1450  -36.6230 C.3   107  PHE107      0.1736
     33  C         -2.9960  -28.7750  -37.1390 C.2   107  PHE107      0.2596
     34  O         -2.1910  -27.9400  -37.5910 O.2   107  PHE107     -0.2718
     35  CB        -3.3810  -31.2720  -37.2240 C.3   107  PHE107      0.0547
     36  CG        -3.2520  -31.4310  -38.7090 C.ar  107  PHE107     -0.0202
     37  CD1       -2.1540  -32.0820  -39.2610 C.ar  107  PHE107     -0.0042
     38  CD2       -4.2270  -30.9230  -39.5530 C.ar  107  PHE107     -0.0042
     39  CE1       -2.0220  -32.2240  -40.6290 C.ar  107  PHE107     -0.0003
     40  CE2       -4.1120  -31.0580  -40.9240 C.ar  107  PHE107     -0.0003
     41  CZ        -3.0040  -31.7110  -41.4690 C.ar  107  PHE107     -0.0000
     42  N         -4.3030  -28.5560  -37.0390 N.am  108  GLY108     -0.1957
     43  CA        -4.9030  -27.3280  -37.4980 C.3   108  GLY108      0.1869
     44  C         -4.4370  -26.1130  -36.7630 C.2   108  GLY108      0.2309
     45  O         -5.0200  -25.0460  -36.9120 O.2   108  GLY108     -0.2863
     46  N         -0.8720  -25.8010  -38.4440 N.3   111  TYR111     -0.1227
     47  CA        -1.3130  -25.5780  -39.8110 C.3   111  TYR111      0.1736
     48  C         -1.4260  -24.0830  -40.1930 C.2   111  TYR111      0.2595
     49  O         -1.5510  -23.7450  -41.3890 O.2   111  TYR111     -0.2718
     50  CB        -2.6420  -26.2790  -40.0390 C.3   111  TYR111      0.0548
     51  CG        -3.2120  -26.0750  -41.4430 C.ar  111  TYR111     -0.0200
     52  CD1       -2.6360  -26.7010  -42.5530 C.ar  111  TYR111     -0.0009
     53  CD2       -4.3280  -25.2560  -41.6520 C.ar  111  TYR111     -0.0009
     54  CE1       -3.1620  -26.5350  -43.8400 C.ar  111  TYR111      0.0417
     55  CE2       -4.8570  -25.0650  -42.9350 C.ar  111  TYR111      0.0417
     56  CZ        -4.2690  -25.7110  -44.0180 C.ar  111  TYR111      0.1957
     57  OH        -4.8180  -25.5510  -45.2690 O.3   111  TYR111     -0.2866
     58  N         -1.3870  -23.1820  -39.2110 N.am  112  HIS112     -0.1975
     59  CA        -1.4650  -21.7820  -39.5680 C.3   112  HIS112      0.1656
     60  C         -0.1700  -21.0090  -39.4060 C.2   112  HIS112      0.2291
     61  O         -0.0580  -19.8530  -39.8330 O.2   112  HIS112     -0.2864
     62  CB        -2.6060  -21.1190  -38.8280 C.3   112  HIS112      0.0771
     63  CG        -3.9280  -21.3670  -39.4700 C.ar  112  HIS112      0.0820
     64  ND1       -4.1790  -21.0410  -40.7850 N.ar  112  HIS112     -0.2267
     65  CD2       -5.0470  -21.9760  -39.0120 C.ar  112  HIS112      0.1154
     66  CE1       -5.3960  -21.4460  -41.1120 C.ar  112  HIS112      0.1986
     67  NE2       -5.9450  -22.0170  -40.0540 N.ar  112  HIS112     -0.2212
     68  N         -2.9090  -19.0380  -45.1410 N.3   117  PRO117     -0.2116
     69  CA        -2.6380  -17.6320  -45.5350 C.3   117  PRO117      0.1372
     70  C         -1.7830  -16.6800  -44.6700 C.2   117  PRO117      0.2244
     71  O         -1.5840  -15.5410  -45.1010 O.2   117  PRO117     -0.2868
     72  CB        -4.0520  -17.1220  -45.7230 C.3   117  PRO117      0.0268
     73  CG        -4.5850  -18.1700  -46.6020 C.3   117  PRO117      0.0207
     74  CD        -3.8500  -19.4360  -46.2220 C.3   117  PRO117      0.0892
     75  N         -2.6650  -15.0820  -43.0730 N.3   119  THR119     -0.1218
     76  CA        -3.8900  -14.8480  -43.8200 C.3   119  THR119      0.1862
     77  C         -4.3250  -13.4250  -43.7070 C.2   119  THR119      0.2287
     78  O         -4.8700  -12.9900  -42.6840 O.2   119  THR119     -0.2866
     79  CB        -5.0820  -15.7850  -43.2830 C.3   119  THR119      0.1770
     80  OG1       -5.8340  -15.1100  -42.2720 O.3   119  THR119     -0.2211
     81  CG2       -4.5300  -17.0930  -42.7060 C.3   119  THR119      0.0375
     82  N         -7.8610  -12.1710  -45.5410 N.3   122  GLU122     -0.1231
     83  CA        -8.4660  -13.4000  -44.9870 C.3   122  GLU122      0.1699
     84  C        -10.2280  -12.8570  -45.4840 C.2   122  GLU122      0.2592
     85  O        -10.7720  -11.8730  -45.0290 O.2   122  GLU122     -0.2718
     86  CB        -8.6400  -13.5720  -43.6070 C.3   122  GLU122      0.0402
     87  CG        -8.8290  -15.0750  -43.2740 C.3   122  GLU122      0.1161
     88  CD        -8.6540  -16.0780  -44.4720 C.2   122  GLU122      0.3649
     89  OE1       -7.6120  -16.0520  -45.1850 O.co2 122  GLU122     -0.2457
     90  OE2       -9.5500  -16.9450  -44.6780 O.co2 122  GLU122     -0.2457
     91  N        -10.8260  -13.2500  -46.5550 N.am  123  TYR123     -0.1976
     92  CA       -12.1520  -12.7680  -47.0070 C.3   123  TYR123      0.1639
     93  C        -12.9990  -12.0770  -45.9760 C.2   123  TYR123      0.2290
     94  O        -12.8810  -10.8370  -45.6760 O.2   123  TYR123     -0.2864
     95  CB       -12.8440  -13.9520  -47.7030 C.3   123  TYR123      0.0560
     96  CG       -12.0360  -14.5190  -48.8420 C.ar  123  TYR123     -0.0198
     97  CD1      -11.8110  -13.7750  -50.0000 C.ar  123  TYR123     -0.0009
     98  CD2      -11.4720  -15.7910  -48.7520 C.ar  123  TYR123     -0.0009
     99  CE1      -11.0390  -14.2800  -51.0390 C.ar  123  TYR123      0.0417
    100  CE2      -10.7000  -16.3080  -49.7840 C.ar  123  TYR123      0.0417
    101  CZ       -10.4850  -15.5490  -50.9230 C.ar  123  TYR123      0.1957
    102  OH        -9.7080  -16.0530  -51.9420 O.3   123  TYR123     -0.2866
    103  N        -13.3090  -13.6990  -42.9080 N.3   125  SER125     -0.1217
    104  CA       -12.7590  -14.2780  -41.6740 C.3   125  SER125      0.1889
    105  C        -11.6470  -13.4380  -41.0490 C.2   125  SER125      0.2288
    106  O        -11.4080  -13.5010  -39.8360 O.2   125  SER125     -0.2866
    107  CB       -12.1980  -15.6570  -41.9450 C.3   125  SER125      0.2089
    108  OG       -11.7170  -16.2780  -40.7720 O.3   125  SER125     -0.2183
@<TRIPOS>BOND
     1   102   101    1
     2    99   101   ar
     3    99    97   ar
     4   101   100   ar
     5    97    96   ar
     6   100    98   ar
     7    96    98   ar
     8    96    95    1
     9    95    92    1
    10    92    91    1
    11    92    93    1
    12    73    74    1
    13    73    72    1
    14    91    84   am
    15    74    68    1
    16    93    94    2
    17    72    69    1
    18    82    83    1
    19    69    68    1
    20    69    70    1
    21    84    85    2
    22    84    83    1
    23    57    56    1
    24    89    88   ar
    25    71    70    2
    26    83    86    1
    27    90    88   ar
    28    88    87    1
    29    56    54   ar
    30    56    55   ar
    31    54    52   ar
    32    76    77    1
    33    76    79    1
    34    76    75    1
    35    77    78    2
    36    86    87    1
    37    79    81    1
    38    79    80    1
    39    55    53   ar
    40   103   104    1
    41    52    51   ar
    42   107   104    1
    43   107   108    1
    44   104   105    1
    45    53    51   ar
    46    41    40   ar
    47    41    39   ar
    48    51    50    1
    49    49    48    2
    50    66    64   ar
    51    66    67   ar
    52   105   106    2
    53    40    38   ar
    54    64    63   ar
    55    39    37   ar
    56    48    47    1
    57    48    58   am
    58    67    65   ar
    59    50    47    1
    60    61    60    2
    61    47    46    1
    62    59    60    1
    63    59    58    1
    64    59    62    1
    65    38    36   ar
    66    63    65   ar
    67    63    62    1
    68    37    36   ar
    69    36    35    1
    70     8     6    1
    71    34    33    2
    72    43    42    1
    73    43    44    1
    74    35    32    1
    75    33    42   am
    76    33    32    1
    77     5     6    1
    78     5     2    1
    79     6     7    1
    80    45    44    2
    81    32    31    1
    82     1     2    1
    83     2     3    1
    84    19    18    2
    85     3     4    2
    86    15    13    1
    87    26    25    2
    88    18    17    1
    89    18    23   am
    90    17    20    1
    91    17    16    1
    92    21    20    1
    93    22    20    1
    94    14    13    1
    95    13    10    1
    96    25    24    1
    97    23    24    1
    98    24    27    1
    99    10     9    1
   100    10    11    1
   101    30    28    1
   102    11    12    2
   103    27    28    1
   104    28    29    1
