@<TRIPOS>MOLECULE
tmp/1w5cI04.pdb
 170 158 0 0 0
SMALL
GASTEIGER

@<TRIPOS>ATOM
      1  N        -13.2440  -32.9560  -10.3760 N.3    71  HIS71      -0.1241
      2  CA       -14.0680  -32.1230  -11.2260 C.3    71  HIS71       0.1621
      3  C        -15.1250  -32.9550  -11.8920 C.2    71  HIS71       0.2264
      4  O        -16.3280  -32.6750  -11.7830 O.2    71  HIS71      -0.2867
      5  CB       -13.2250  -31.4440  -12.2900 C.3    71  HIS71       0.0745
      6  CG       -12.5210  -30.2220  -11.7970 C.ar   71  HIS71       0.0817
      7  ND1      -13.1760  -29.0340  -11.5450 N.ar   71  HIS71      -0.2268
      8  CD2      -11.2330  -30.0280  -11.4280 C.ar   71  HIS71       0.1154
      9  CE1      -12.3240  -28.1660  -11.0350 C.ar   71  HIS71       0.1986
     10  NE2      -11.1380  -28.7420  -10.9540 N.ar   71  HIS71      -0.2212
     11  N        -17.8650  -34.1900   -9.3060 N.3    74  THR74      -0.1203
     12  CA       -18.9000  -33.2080   -9.0650 C.3    74  THR74       0.1994
     13  C        -19.9910  -33.2240  -10.1400 C.2    74  THR74       0.2617
     14  O        -21.1840  -33.3870   -9.8510 O.2    74  THR74      -0.2717
     15  CB       -18.2980  -31.8020   -9.0080 C.3    74  THR74       0.1784
     16  OG1      -17.1530  -31.8080   -8.1400 O.3    74  THR74      -0.2211
     17  CG2      -19.3500  -30.7960   -8.4870 C.3    74  THR74       0.0376
     18  N        -19.5590  -33.0570  -11.3780 N.am   75  LEU75      -0.1979
     19  CA       -20.4510  -33.0340  -12.5150 C.3    75  LEU75       0.1596
     20  C        -21.5990  -34.0420  -12.4660 C.2    75  LEU75       0.2287
     21  O        -22.7440  -33.7090  -12.8020 O.2    75  LEU75      -0.2864
     22  CB       -19.6520  -33.2740  -13.7770 C.3    75  LEU75       0.0297
     23  CG       -19.9590  -32.1810  -14.7710 C.3    75  LEU75       0.0022
     24  CD1      -19.6490  -30.8220  -14.1390 C.3    75  LEU75       0.0001
     25  CD2      -19.1530  -32.4360  -16.0290 C.3    75  LEU75       0.0001
     26  N        -20.7920  -19.1940  -28.0460 N.3   147  VAL147     -0.1231
     27  CA       -20.0090  -20.3780  -27.7280 C.3   147  VAL147      0.1692
     28  C        -19.9140  -20.4060  -26.2280 C.2   147  VAL147      0.2592
     29  O        -20.3300  -21.3680  -25.5800 O.2   147  VAL147     -0.2718
     30  CB       -18.6010  -20.2510  -28.2650 C.3   147  VAL147      0.0266
     31  CG1      -18.0020  -21.6200  -28.4950 C.3   147  VAL147      0.0020
     32  CG2      -18.6130  -19.4090  -29.5260 C.3   147  VAL147      0.0020
     33  N        -19.3490  -19.3360  -25.6790 N.am  148  LEU148     -0.1966
     34  CA       -19.2330  -19.2420  -24.2450 C.3   148  LEU148      0.1728
     35  C        -20.6380  -19.4150  -23.6830 C.2   148  LEU148      0.2616
     36  O        -20.8390  -20.1580  -22.7260 O.2   148  LEU148     -0.2715
     37  CB       -18.6590  -17.8980  -23.8250 C.3   148  LEU148      0.0311
     38  CG       -17.5860  -18.1180  -22.7450 C.3   148  LEU148      0.0022
     39  CD1      -16.2590  -17.5550  -23.2130 C.3   148  LEU148      0.0001
     40  CD2      -18.0000  -17.4940  -21.4400 C.3   148  LEU148      0.0001
     41  N        -21.6140  -18.7510  -24.2940 N.am  149  GLY149     -0.1955
     42  CA       -22.9880  -18.8790  -23.8450 C.3   149  GLY149      0.1869
     43  C        -23.5170  -20.3050  -23.8100 C.2   149  GLY149      0.2309
     44  O        -23.9140  -20.7940  -22.7440 O.2   149  GLY149     -0.2863
     45  N        -22.1030  -23.2770  -23.8670 N.3   151  GLY151     -0.1210
     46  CA       -21.4230  -24.0780  -22.8680 C.3   151  GLY151      0.1956
     47  C        -22.2050  -24.1760  -21.5730 C.2   151  GLY151      0.2611
     48  O        -22.5550  -25.2670  -21.1360 O.2   151  GLY151     -0.2717
     49  N        -22.4890  -23.0330  -20.9630 N.am  152  ALA152     -0.1979
     50  CA       -23.2150  -23.0320  -19.7160 C.3   152  ALA152      0.1597
     51  C        -24.3040  -24.0610  -19.8160 C.2   152  ALA152      0.2287
     52  O        -24.2310  -25.1240  -19.2080 O.2   152  ALA152     -0.2864
     53  CB       -23.8100  -21.6830  -19.4650 C.3   152  ALA152      0.0319
     54  N        -24.0320  -27.6700  -19.0880 N.3   155  LEU155     -0.1245
     55  CA       -23.9380  -28.0330  -17.6820 C.3   155  LEU155      0.1561
     56  C        -25.3050  -28.3420  -17.1210 C.2   155  LEU155      0.2260
     57  O        -25.5560  -29.4740  -16.7060 O.2   155  LEU155     -0.2867
     58  CB       -23.3090  -26.9060  -16.8600 C.3   155  LEU155      0.0270
     59  CG       -23.1790  -27.1790  -15.3620 C.3   155  LEU155      0.0019
     60  CD1      -22.2020  -28.3120  -15.0970 C.3   155  LEU155      0.0001
     61  CD2      -22.6910  -25.9310  -14.6850 C.3   155  LEU155      0.0001
     62  N        -25.6330  -34.1000  -11.1910 N.3   165  LEU165     -0.1245
     63  CA       -24.4570  -33.3070  -10.9010 C.3   165  LEU165      0.1561
     64  C        -24.2130  -33.3840   -9.3860 C.2   165  LEU165      0.2260
     65  O        -24.4400  -32.4200   -8.6530 O.2   165  LEU165     -0.2867
     66  CB       -24.6370  -31.8650  -11.3600 C.3   165  LEU165      0.0270
     67  CG       -23.3550  -31.0060  -11.4730 C.3   165  LEU165      0.0019
     68  CD1      -23.6790  -29.7520  -12.2410 C.3   165  LEU165      0.0001
     69  CD2      -22.8170  -30.6000  -10.1150 C.3   165  LEU165      0.0001
     70  N        -25.4860  -11.3110   -5.7850 N.3   192  TYR192     -0.1241
     71  CA       -24.3520  -10.4220   -5.9900 C.3   192  TYR192      0.1605
     72  C        -24.6730   -8.9790   -5.6130 C.2   192  TYR192      0.2264
     73  O        -23.8090   -8.2590   -5.1140 O.2   192  TYR192     -0.2867
     74  CB       -23.8790  -10.5000   -7.4410 C.3   192  TYR192      0.0534
     75  CG       -23.5200  -11.9000   -7.8690 C.ar  192  TYR192     -0.0201
     76  CD1      -22.4210  -12.5580   -7.3170 C.ar  192  TYR192     -0.0009
     77  CD2      -24.2960  -12.5810   -8.8060 C.ar  192  TYR192     -0.0009
     78  CE1      -22.1050  -13.8600   -7.6820 C.ar  192  TYR192      0.0417
     79  CE2      -23.9900  -13.8820   -9.1820 C.ar  192  TYR192      0.0417
     80  CZ       -22.8960  -14.5180   -8.6160 C.ar  192  TYR192      0.1957
     81  OH       -22.6000  -15.8130   -8.9760 O.3   192  TYR192     -0.2866
     82  N        -22.9210  -19.6330   -2.1940 N.3   207  VAL207     -0.1245
     83  CA       -23.8090  -20.5870   -2.8550 C.3   207  VAL207      0.1561
     84  C        -23.6250  -22.0810   -2.5750 C.2   207  VAL207      0.2260
     85  O        -22.6260  -22.6850   -2.9730 O.2   207  VAL207     -0.2867
     86  CB       -23.7750  -20.3710   -4.3540 C.3   207  VAL207      0.0252
     87  CG1      -24.1740  -21.6420   -5.0890 C.3   207  VAL207      0.0019
     88  CG2      -24.7450  -19.2920   -4.6930 C.3   207  VAL207      0.0019
     89  N        -27.3020  -26.7590   -4.9020 N.3   210  LEU210     -0.1245
     90  CA       -26.7820  -27.2050   -6.1590 C.3   210  LEU210      0.1561
     91  C        -27.7810  -26.6980   -7.1640 C.2   210  LEU210      0.2260
     92  O        -27.4270  -26.3940   -8.2970 O.2   210  LEU210     -0.2867
     93  CB       -26.6660  -28.7200   -6.1830 C.3   210  LEU210      0.0270
     94  CG       -25.9480  -29.3160   -7.3910 C.3   210  LEU210      0.0019
     95  CD1      -25.0700  -28.3070   -8.0810 C.3   210  LEU210      0.0001
     96  CD2      -25.1380  -30.4560   -6.9170 C.3   210  LEU210      0.0001
     97  N        -26.9880  -23.0810   -8.3310 N.3   213  VAL213     -0.1245
     98  CA       -25.8820  -23.0600   -9.2770 C.3   213  VAL213      0.1561
     99  C        -26.3510  -23.4760  -10.6480 C.2   213  VAL213      0.2260
    100  O        -26.0010  -22.8510  -11.6500 O.2   213  VAL213     -0.2867
    101  CB       -24.7510  -24.0180   -8.8620 C.3   213  VAL213      0.0252
    102  CG1      -23.9430  -24.4550  -10.0980 C.3   213  VAL213      0.0019
    103  CG2      -23.8460  -23.3410   -7.8600 C.3   213  VAL213      0.0019
    104  N        -26.7850  -20.8400  -13.7210 N.3   217  HIS217     -0.1241
    105  CA       -26.0080  -20.8770  -14.9450 C.3   217  HIS217      0.1621
    106  C        -26.9240  -20.5480  -16.1140 C.2   217  HIS217      0.2264
    107  O        -26.5560  -19.7900  -17.0220 O.2   217  HIS217     -0.2867
    108  CB       -25.3780  -22.2540  -15.1320 C.3   217  HIS217      0.0745
    109  CG       -24.0040  -22.3720  -14.5550 C.ar  217  HIS217      0.0817
    110  ND1      -23.7310  -23.1020  -13.4210 N.ar  217  HIS217     -0.2268
    111  CD2      -22.8170  -21.8690  -14.9740 C.ar  217  HIS217      0.1154
    112  CE1      -22.4350  -23.0500  -13.1690 C.ar  217  HIS217      0.1986
    113  NE2      -21.8560  -22.3060  -14.0950 N.ar  217  HIS217     -0.2212
    114  N        -26.9340  -17.2170  -17.0500 N.3   220  ILE220     -0.1245
    115  CA       -25.7190  -16.8870  -17.7930 C.3   220  ILE220      0.1561
    116  C        -25.6700  -17.3610  -19.2470 C.2   220  ILE220      0.2260
    117  O        -25.4100  -16.5640  -20.1630 O.2   220  ILE220     -0.2867
    118  CB       -24.4740  -17.3920  -17.0700 C.3   220  ILE220      0.0252
    119  CG1      -24.1700  -16.4800  -15.9000 C.3   220  ILE220      0.0019
    120  CG2      -23.2750  -17.3490  -17.9890 C.3   220  ILE220      0.0019
    121  CD1      -23.7650  -15.1030  -16.3090 C.3   220  ILE220      0.0001
    122  N        -25.3020  -14.1620  -21.6000 N.3   224  CYS224     -0.1235
    123  CA       -24.2700  -13.8960  -22.5770 C.3   224  CYS224      0.1677
    124  C        -24.6200  -14.2200  -24.0280 C.2   224  CYS224      0.2270
    125  O        -24.1400  -13.5260  -24.9270 O.2   224  CYS224     -0.2867
    126  CB       -22.9850  -14.5950  -22.1690 C.3   224  CYS224      0.0956
    127  SG       -23.1670  -16.3520  -22.2410 S.3   224  CYS224     -0.0801
    128  N        -11.1900  -12.8150  -12.1790 N.3   262  MET262     -0.1245
    129  CA       -11.8570  -14.0860  -12.0550 C.3   262  MET262      0.1570
    130  C        -10.8480  -14.9970  -11.3780 C.2   262  MET262      0.2261
    131  O        -11.1690  -15.6740  -10.4050 O.2   262  MET262     -0.2867
    132  CB       -12.1770  -14.6390  -13.4400 C.3   262  MET262      0.0387
    133  CG       -12.7150  -13.6010  -14.4480 C.3   262  MET262      0.0595
    134  SD       -13.3100  -14.3430  -16.0210 S.3   262  MET262     -0.1393
    135  CE       -14.6220  -15.4220  -15.2990 C.3   262  MET262      0.0692
    136  N        -11.3900  -17.4030   -8.4540 N.3   266  ALA266     -0.1245
    137  CA       -11.1970  -18.8390   -8.4900 C.3   266  ALA266      0.1562
    138  C        -10.6590  -19.3320   -7.1440 C.2   266  ALA266      0.2260
    139  O        -11.3930  -19.9410   -6.3570 O.2   266  ALA266     -0.2867
    140  CB       -10.2290  -19.1860   -9.5790 C.3   266  ALA266      0.0290
    141  N        -13.1030  -19.1520   -4.3480 N.3   269  PHE269     -0.1241
    142  CA       -14.2150  -20.0550   -4.5550 C.3   269  PHE269      0.1605
    143  C        -13.8740  -21.4460   -4.0460 C.2   269  PHE269      0.2264
    144  O        -14.6710  -22.0880   -3.3770 O.2   269  PHE269     -0.2867
    145  CB       -14.5830  -20.1090   -6.0380 C.3   269  PHE269      0.0534
    146  CG       -16.0650  -20.1310   -6.2880 C.ar  269  PHE269     -0.0203
    147  CD1      -16.8130  -18.9480   -6.2440 C.ar  269  PHE269     -0.0042
    148  CD2      -16.7290  -21.3400   -6.5130 C.ar  269  PHE269     -0.0042
    149  CE1      -18.2060  -18.9640   -6.4190 C.ar  269  PHE269     -0.0003
    150  CE2      -18.1210  -21.3660   -6.6870 C.ar  269  PHE269     -0.0003
    151  CZ       -18.8650  -20.1580   -6.6390 C.ar  269  PHE269     -0.0000
    152  N        -19.7700  -26.7890   -4.6790 N.3   276  VAL276     -0.1231
    153  CA       -19.1640  -26.8340   -5.9980 C.3   276  VAL276      0.1692
    154  C        -17.8990  -27.6570   -5.9180 C.2   276  VAL276      0.2592
    155  O        -17.4480  -28.2860   -6.8770 O.2   276  VAL276     -0.2718
    156  CB       -18.8080  -25.4290   -6.5020 C.3   276  VAL276      0.0266
    157  CG1      -18.1180  -25.4970   -7.8570 C.3   276  VAL276      0.0020
    158  CG2      -20.0480  -24.5690   -6.5770 C.3   276  VAL276      0.0020
    159  N        -17.3460  -27.6460   -4.7180 N.am  277  TYR277     -0.1976
    160  CA       -16.1380  -28.3750   -4.3880 C.3   277  TYR277      0.1639
    161  C        -16.5920  -29.1650   -3.1700 C.2   277  TYR277      0.2290
    162  O        -16.6750  -28.6620   -2.0380 O.2   277  TYR277     -0.2864
    163  CB       -15.0050  -27.4280   -4.0350 C.3   277  TYR277      0.0560
    164  CG       -14.5260  -26.6240   -5.2030 C.ar  277  TYR277     -0.0198
    165  CD1      -13.9500  -27.2520   -6.2850 C.ar  277  TYR277     -0.0009
    166  CD2      -14.6540  -25.2340   -5.2280 C.ar  277  TYR277     -0.0009
    167  CE1      -13.5080  -26.5390   -7.3690 C.ar  277  TYR277      0.0417
    168  CE2      -14.2160  -24.5070   -6.3110 C.ar  277  TYR277      0.0417
    169  CZ       -13.6420  -25.1680   -7.3830 C.ar  277  TYR277      0.1957
    170  OH       -13.2300  -24.4550   -8.4810 O.3   277  TYR277     -0.2866
@<TRIPOS>BOND
     1    32    30    1
     2    31    30    1
     3    30    27    1
     4    26    27    1
     5    27    28    1
     6    28    33   am
     7    28    29    2
     8    33    34    1
     9   125   124    2
    10    41    42    1
    11    41    35   am
    12    34    37    1
    13    34    35    1
    14   124   123    1
    15    45    46    1
    16    42    43    1
    17    37    38    1
    18    43    44    2
    19    35    36    2
    20    39    38    1
    21    46    47    1
    22    38    40    1
    23   123   126    1
    24   123   122    1
    25   127   126    1
    26    47    48    2
    27    47    49   am
    28    49    50    1
    29   117   116    2
    30    51    50    1
    31    51    52    2
    32    50    53    1
    33   116   115    1
    34    54    55    1
    35   120   118    1
    36   115   118    1
    37   115   114    1
    38    55    56    1
    39    55    58    1
    40    56    57    2
    41   118   119    1
    42   107   106    2
    43    58    59    1
    44   121   119    1
    45   106   105    1
    46    25    23    1
    47   134   135    1
    48   134   133    1
    49    59    60    1
    50    59    61    1
    51   108   105    1
    52   108   109    1
    53   111   109   ar
    54   111   113   ar
    55   105   104    1
    56    23    24    1
    57    23    22    1
    58   109   110   ar
    59   133   132    1
    60   113   112   ar
    61    22    19    1
    62   132   129    1
    63   110   112   ar
    64    21    20    2
    65    19    20    1
    66    19    18    1
    67     5     6    1
    68     5     2    1
    69    68    67    1
    70   128   129    1
    71   129   130    1
    72     3     4    2
    73     3     2    1
    74     6     7   ar
    75     6     8   ar
    76   100    99    2
    77     7     9   ar
    78    67    66    1
    79    67    69    1
    80     8    10   ar
    81   130   131    2
    82    18    13   am
    83    66    63    1
    84     2     1    1
    85    62    63    1
    86     9    10   ar
    87    63    64    1
    88    99    98    1
    89    13    14    2
    90    13    12    1
    91   102   101    1
    92   140   137    1
    93    64    65    2
    94    11    12    1
    95    98   101    1
    96    98    97    1
    97    79    77   ar
    98    79    80   ar
    99    12    15    1
   100    15    17    1
   101    15    16    1
   102    81    80    1
   103   101   103    1
   104    77    75   ar
   105    80    78   ar
   106   137   136    1
   107   137   138    1
   108   170   169    1
   109    92    91    2
   110    95    94    1
   111    75    74    1
   112    75    76   ar
   113   157   156    1
   114    78    76   ar
   115    74    71    1
   116    94    96    1
   117    94    93    1
   118   169   167   ar
   119   169   168   ar
   120   167   165   ar
   121    91    90    1
   122   138   139    2
   123   155   154    2
   124   150   151   ar
   125   150   148   ar
   126   151   149   ar
   127   158   156    1
   128   148   146   ar
   129   156   153    1
   130   149   147   ar
   131   168   166   ar
   132   146   147   ar
   133   146   145    1
   134   165   164   ar
   135    93    90    1
   136    90    89    1
   137   145   142    1
   138   153   154    1
   139   153   152    1
   140    71    70    1
   141    71    72    1
   142   154   159   am
   143    72    73    2
   144   166   164   ar
   145   164   163    1
   146    87    86    1
   147   159   160    1
   148    88    86    1
   149   142   141    1
   150   142   143    1
   151   160   163    1
   152   160   161    1
   153    86    83    1
   154   143   144    2
   155   161   162    2
   156    85    84    2
   157    83    84    1
   158    83    82    1
