@<TRIPOS>MOLECULE
tmp/1w5cI12.pdb
 164 155 0 0 0
SMALL
GASTEIGER

@<TRIPOS>ATOM
      1  N          6.4400  -12.5160  -30.5800 N.3    19  ASN19      -0.1240
      2  CA         5.0410  -12.7960  -30.6240 C.3    19  ASN19       0.1653
      3  C          4.3580  -11.5260  -31.0570 C.2    19  ASN19       0.2266
      4  O          3.4000  -11.5630  -31.8280 O.2    19  ASN19      -0.2867
      5  CB         4.5650  -13.3170  -29.2810 C.3    19  ASN19       0.1155
      6  CG         4.9490  -14.7730  -29.0760 C.2    19  ASN19       0.2627
      7  OD1        5.1710  -15.5100  -30.0420 O.2    19  ASN19      -0.2716
      8  ND2        5.0010  -15.2070  -27.8230 N.am   19  ASN19      -0.0877
      9  N          3.3810  -11.4650  -34.5000 N.3    22  LEU22      -0.1231
     10  CA         2.0750  -11.9630  -34.8810 C.3    22  LEU22       0.1693
     11  C          0.8990  -11.0210  -34.5650 C.2    22  LEU22       0.2591
     12  O         -0.2360  -11.2960  -34.9360 O.2    22  LEU22      -0.2718
     13  CB         1.8460  -13.3080  -34.2540 C.3    22  LEU22       0.0284
     14  CG         2.5700  -14.4630  -34.8750 C.3    22  LEU22       0.0019
     15  CD1        4.0370  -14.2990  -34.9380 C.3    22  LEU22       0.0001
     16  CD2        2.1720  -15.7790  -34.1890 C.3    22  LEU22       0.0001
     17  N          1.1440   -9.8990  -33.8740 N.am   23  ILE23      -0.1980
     18  CA         0.0100   -9.0160  -33.6010 C.3    23  ILE23       0.1595
     19  C         -0.5990   -8.5250  -34.8910 C.2    23  ILE23       0.2287
     20  O         -1.8080   -8.3280  -34.9800 O.2    23  ILE23      -0.2864
     21  CB         0.3770   -7.7830  -32.7590 C.3    23  ILE23       0.0276
     22  CG1        1.3120   -6.8640  -33.5550 C.3    23  ILE23       0.0022
     23  CG2        1.0460   -8.1960  -31.4540 C.3    23  ILE23       0.0022
     24  CD1        1.6020   -5.5470  -32.8690 C.3    23  ILE23       0.0001
     25  N         -1.1110  -15.7730  -36.2590 N.3    29  LEU29      -0.1245
     26  CA        -1.6370  -15.8760  -34.9030 C.3    29  LEU29       0.1561
     27  C         -2.6870  -16.9600  -34.8040 C.2    29  LEU29       0.2260
     28  O         -2.6170  -17.8090  -33.9270 O.2    29  LEU29      -0.2867
     29  CB        -2.2070  -14.5370  -34.4410 C.3    29  LEU29       0.0270
     30  CG        -2.2280  -14.1430  -32.9730 C.3    29  LEU29       0.0019
     31  CD1       -0.8570  -14.2980  -32.3450 C.3    29  LEU29       0.0001
     32  CD2       -2.6900  -12.6990  -32.9050 C.3    29  LEU29       0.0001
     33  N         -1.1490  -19.7920  -33.8020 N.3    32  ALA32      -0.1231
     34  CA        -0.4800  -19.5560  -32.5440 C.3    32  ALA32       0.1694
     35  C         -1.5480  -19.8370  -31.5100 C.2    32  ALA32       0.2592
     36  O         -1.3610  -20.5800  -30.5540 O.2    32  ALA32      -0.2718
     37  CB         0.0640  -18.1440  -32.4220 C.3    32  ALA32       0.0304
     38  N         -2.7000  -19.1900  -31.7420 N.am   33  HIS33      -0.1976
     39  CA        -3.8570  -19.3110  -30.8830 C.3    33  HIS33       0.1656
     40  C         -4.4540  -20.7140  -30.9640 C.2    33  HIS33       0.2291
     41  O         -4.9070  -21.2670  -29.9650 O.2    33  HIS33      -0.2864
     42  CB        -4.8820  -18.2220  -31.2350 C.3    33  HIS33       0.0771
     43  CG        -4.5950  -16.8730  -30.5550 C.ar   33  HIS33       0.0820
     44  ND1       -4.1220  -15.7610  -31.2200 N.ar   33  HIS33      -0.2267
     45  CD2       -4.7010  -16.5070  -29.2530 C.ar   33  HIS33       0.1154
     46  CE1       -3.9410  -14.7740  -30.3560 C.ar   33  HIS33       0.1986
     47  NE2       -4.2820  -15.2000  -29.1540 N.ar   33  HIS33      -0.2212
     48  N         -1.7830  -23.5310  -29.1710 N.3    36  HIS36      -0.1226
     49  CA        -1.8760  -23.2550  -27.7410 C.3    36  HIS36       0.1752
     50  C         -3.1570  -23.8820  -27.2280 C.2    36  HIS36       0.2595
     51  O         -3.1200  -24.7250  -26.3450 O.2    36  HIS36      -0.2718
     52  CB        -1.9410  -21.7540  -27.5120 C.3    36  HIS36       0.0759
     53  CG        -1.9250  -21.3660  -26.0740 C.ar   36  HIS36       0.0818
     54  ND1       -2.3930  -20.1510  -25.6260 N.ar   36  HIS36      -0.2268
     55  CD2       -1.4610  -22.0180  -24.9840 C.ar   36  HIS36       0.1154
     56  CE1       -2.2170  -20.0730  -24.3190 C.ar   36  HIS36       0.1986
     57  NE2       -1.6520  -21.1930  -23.9040 N.ar   36  HIS36      -0.2212
     58  N         -4.2830  -23.4520  -27.7930 N.am   37  ALA37      -0.1980
     59  CA        -5.5620  -23.9840  -27.4080 C.3    37  ALA37       0.1597
     60  C         -5.3510  -25.4670  -27.1800 C.2    37  ALA37       0.2287
     61  O         -5.2810  -25.9210  -26.0390 O.2    37  ALA37      -0.2864
     62  CB        -6.5520  -23.7680  -28.4950 C.3    37  ALA37       0.0319
     63  N         -3.7400  -26.9740  -24.2590 N.3    40  ILE40      -0.1245
     64  CA        -4.4240  -27.1330  -22.9700 C.3    40  ILE40       0.1561
     65  C         -5.2410  -28.4120  -23.0670 C.2    40  ILE40       0.2260
     66  O         -5.2580  -29.2290  -22.1460 O.2    40  ILE40      -0.2867
     67  CB        -5.4360  -25.9970  -22.6480 C.3    40  ILE40       0.0252
     68  CG1       -4.8100  -24.6140  -22.7730 C.3    40  ILE40       0.0019
     69  CG2       -5.9060  -26.1560  -21.2280 C.3    40  ILE40       0.0019
     70  CD1       -5.8050  -23.4950  -22.5490 C.3    40  ILE40       0.0001
     71  N         -7.4830   -5.6290  -36.3930 N.3   129  TYR129     -0.1241
     72  CA        -7.3590   -5.9170  -34.9600 C.3   129  TYR129      0.1605
     73  C         -8.2480   -4.9770  -34.1880 C.2   129  TYR129      0.2264
     74  O         -8.8170   -5.3320  -33.1270 O.2   129  TYR129     -0.2867
     75  CB        -5.8960   -5.7910  -34.5400 C.3   129  TYR129      0.0534
     76  CG        -5.1850   -7.0440  -34.9110 C.ar  129  TYR129     -0.0201
     77  CD1       -5.3010   -8.1690  -34.1000 C.ar  129  TYR129     -0.0009
     78  CD2       -4.5260   -7.1670  -36.1410 C.ar  129  TYR129     -0.0009
     79  CE1       -4.8050   -9.3880  -34.4960 C.ar  129  TYR129      0.0417
     80  CE2       -4.0170   -8.3910  -36.5540 C.ar  129  TYR129      0.0417
     81  CZ        -4.1790   -9.4930  -35.7260 C.ar  129  TYR129      0.1957
     82  OH        -3.8280  -10.7390  -36.1420 O.3   129  TYR129     -0.2866
     83  N        -14.5350   -6.6590  -34.7480 N.3   137  MET137     -0.1245
     84  CA       -13.9880   -6.9520  -33.4390 C.3   137  MET137      0.1570
     85  C        -15.1860   -7.3340  -32.6060 C.2   137  MET137      0.2261
     86  O        -15.2630   -8.4260  -32.0540 O.2   137  MET137     -0.2867
     87  CB       -13.3230   -5.7140  -32.8670 C.3   137  MET137      0.0387
     88  CG       -11.8790   -5.9490  -32.5620 C.3   137  MET137      0.0595
     89  SD       -11.1250   -7.0830  -33.7500 S.3   137  MET137     -0.1393
     90  CE       -10.0320   -8.0350  -32.6340 C.3   137  MET137      0.0692
     91  N        -19.3490  -19.3360  -25.6790 N.3   148  LEU148     -0.1245
     92  CA       -19.2330  -19.2420  -24.2450 C.3   148  LEU148      0.1561
     93  C        -20.6380  -19.4150  -23.6830 C.2   148  LEU148      0.2260
     94  O        -20.8390  -20.1580  -22.7260 O.2   148  LEU148     -0.2867
     95  CB       -18.6590  -17.8980  -23.8250 C.3   148  LEU148      0.0270
     96  CG       -17.5860  -18.1180  -22.7450 C.3   148  LEU148      0.0019
     97  CD1      -16.2590  -17.5550  -23.2130 C.3   148  LEU148      0.0001
     98  CD2      -18.0000  -17.4940  -21.4400 C.3   148  LEU148      0.0001
     99  N         -4.8920   -4.8130  -30.6320 N.3   248  GLY248     -0.1210
    100  CA        -4.7070   -6.1830  -30.2430 C.3   248  GLY248      0.1956
    101  C         -4.2280   -6.1950  -28.8260 C.2   248  GLY248      0.2611
    102  O         -4.8960   -6.7150  -27.9370 O.2   248  GLY248     -0.2717
    103  N         -3.0670   -5.5880  -28.6220 N.am  249  GLU249     -0.1979
    104  CA        -2.4780   -5.5360  -27.3020 C.3   249  GLU249      0.1602
    105  C         -3.4010   -4.8190  -26.3250 C.2   249  GLU249      0.2287
    106  O         -3.5630   -5.2540  -25.1900 O.2   249  GLU249     -0.2864
    107  CB        -1.0990   -4.8950  -27.3730 C.3   249  GLU249      0.0415
    108  CG        -0.9140   -3.6340  -26.6140 C.3   249  GLU249      0.1163
    109  CD         0.5520   -3.3580  -26.4710 C.2   249  GLU249      0.3649
    110  OE1        1.1840   -3.9910  -25.5940 O.co2 249  GLU249     -0.2457
    111  OE2        1.0790   -2.5340  -27.2550 O.co2 249  GLU249     -0.2457
    112  N         -6.7280   -4.6740  -26.4620 N.3   251  TYR251     -0.1227
    113  CA        -7.7050   -5.7000  -26.1480 C.3   251  TYR251      0.1736
    114  C         -7.0630   -6.6930  -25.2320 C.2   251  TYR251      0.2595
    115  O         -7.6650   -7.1210  -24.2550 O.2   251  TYR251     -0.2718
    116  CB        -8.1730   -6.3940  -27.4050 C.3   251  TYR251      0.0548
    117  CG        -8.9350   -5.4460  -28.2730 C.ar  251  TYR251     -0.0200
    118  CD1       -9.9520   -4.6670  -27.7280 C.ar  251  TYR251     -0.0009
    119  CD2       -8.5840   -5.2460  -29.6180 C.ar  251  TYR251     -0.0009
    120  CE1      -10.5810   -3.7060  -28.4890 C.ar  251  TYR251      0.0417
    121  CE2       -9.2160   -4.2910  -30.3850 C.ar  251  TYR251      0.0417
    122  CZ       -10.2070   -3.5200  -29.8130 C.ar  251  TYR251      0.1957
    123  OH       -10.8210   -2.5300  -30.5260 O.3   251  TYR251     -0.2866
    124  N         -5.8250   -7.0490  -25.5430 N.am  252  LEU252     -0.1980
    125  CA        -5.1090   -7.9990  -24.7230 C.3   252  LEU252      0.1596
    126  C         -5.2660   -7.4980  -23.3150 C.2   252  LEU252      0.2287
    127  O         -6.0420   -8.0450  -22.5420 O.2   252  LEU252     -0.2864
    128  CB        -3.6360   -8.0460  -25.1020 C.3   252  LEU252      0.0297
    129  CG        -2.7900   -9.1420  -24.4660 C.3   252  LEU252      0.0022
    130  CD1       -3.4300  -10.4990  -24.7250 C.3   252  LEU252      0.0001
    131  CD2       -1.4000   -9.0950  -25.0470 C.3   252  LEU252      0.0001
    132  N         -8.6050   -7.8410  -21.7930 N.3   255  SER255     -0.1202
    133  CA        -9.0240   -9.1620  -21.3940 C.3   255  SER255      0.2020
    134  C         -7.9270   -9.8280  -20.5840 C.2   255  SER255      0.2618
    135  O         -8.0990  -10.9350  -20.0910 O.2   255  SER255     -0.2717
    136  CB        -9.4150  -10.0060  -22.6240 C.3   255  SER255      0.2103
    137  OG        -8.3780  -10.1010  -23.5730 O.3   255  SER255     -0.2182
    138  N         -6.8010   -9.1530  -20.4100 N.am  256  LEU256     -0.1979
    139  CA        -5.7320   -9.7620  -19.6380 C.3   256  LEU256      0.1596
    140  C         -6.0470   -9.6780  -18.1450 C.2   256  LEU256      0.2287
    141  O         -5.6830  -10.5700  -17.3620 O.2   256  LEU256     -0.2864
    142  CB        -4.3820   -9.0950  -19.9410 C.3   256  LEU256      0.0297
    143  CG        -3.1680  -10.0120  -19.7130 C.3   256  LEU256      0.0022
    144  CD1       -3.6250  -11.4240  -19.2790 C.3   256  LEU256      0.0001
    145  CD2       -2.3390  -10.0820  -20.9960 C.3   256  LEU256      0.0001
    146  N         -9.0580  -11.9200  -16.6220 N.3   259  LEU259     -0.1245
    147  CA        -8.7900  -13.1820  -15.9620 C.3   259  LEU259      0.1561
    148  C         -8.2450  -12.9800  -14.5490 C.2   259  LEU259      0.2260
    149  O         -8.8410  -13.4620  -13.5870 O.2   259  LEU259     -0.2867
    150  CB        -7.7990  -13.9840  -16.7860 C.3   259  LEU259      0.0270
    151  CG        -8.0920  -13.9410  -18.2730 C.3   259  LEU259      0.0019
    152  CD1       -7.0420  -14.7340  -19.0360 C.3   259  LEU259      0.0001
    153  CD2       -9.4680  -14.4880  -18.5000 C.3   259  LEU259      0.0001
    154  N         -0.8980  -11.9440  -13.8720 N.3   417  PHE417     -0.1241
    155  CA        -1.6970  -11.4270  -14.9690 C.3   417  PHE417      0.1605
    156  C         -2.1250   -9.9800  -14.7340 C.2   417  PHE417      0.2264
    157  O         -2.3750   -9.2300  -15.6800 O.2   417  PHE417     -0.2867
    158  CB        -2.9040  -12.3350  -15.1920 C.3   417  PHE417      0.0534
    159  CG        -2.6120  -13.5140  -16.0860 C.ar  417  PHE417     -0.0203
    160  CD1       -1.4250  -14.2260  -15.9470 C.ar  417  PHE417     -0.0042
    161  CD2       -3.5200  -13.8970  -17.0640 C.ar  417  PHE417     -0.0042
    162  CE1       -1.1400  -15.2960  -16.7670 C.ar  417  PHE417     -0.0003
    163  CE2       -3.2490  -14.9610  -17.8840 C.ar  417  PHE417     -0.0003
    164  CZ        -2.0480  -15.6700  -17.7380 C.ar  417  PHE417     -0.0000
@<TRIPOS>BOND
     1    80    78   ar
     2    80    81   ar
     3    71    72    1
     4    25    26    1
     5    82    81    1
     6    78    76   ar
     7    81    79   ar
     8    20    19    2
     9    72    75    1
    10    72    73    1
    11    15    14    1
    12    12    11    2
    13    76    75    1
    14    76    77   ar
    15    26    27    1
    16    26    29    1
    17    19    18    1
    18    10    11    1
    19    10     9    1
    20    10    13    1
    21    14    13    1
    22    14    16    1
    23    27    28    2
    24    83    84    1
    25    11    17   am
    26    79    77   ar
    27    29    30    1
    28    73    74    2
    29    17    18    1
    30    33    34    1
    31    89    90    1
    32    89    88    1
    33    18    21    1
    34    22    24    1
    35    22    21    1
    36    84    87    1
    37    84    85    1
    38    30    32    1
    39    30    31    1
    40    87    88    1
    41    21    23    1
    42    85    86    2
    43    34    37    1
    44    34    35    1
    45     4     3    2
    46    38    35   am
    47    38    39    1
    48    35    36    2
    49    42    39    1
    50    42    43    1
    51    44    43   ar
    52    44    46   ar
    53     3     2    1
    54    40    39    1
    55    40    41    2
    56    99   100    1
    57     2     1    1
    58     2     5    1
    59    43    45   ar
    60   123   122    1
    61   121   122   ar
    62   121   119   ar
    63    46    47   ar
    64   100   101    1
    65     7     6    2
    66   122   120   ar
    67   119   117   ar
    68     5     6    1
    69    45    47   ar
    70    48    49    1
    71     6     8   am
    72   101   103   am
    73   101   102    2
    74   103   104    1
    75    62    59    1
    76   120   118   ar
    77   117   118   ar
    78   117   116    1
    79    58    59    1
    80    58    50   am
    81    49    52    1
    82    49    50    1
    83    52    53    1
    84    59    60    1
    85   116   113    1
    86   107   104    1
    87   107   108    1
    88   104   105    1
    89   111   109   ar
    90    50    51    2
    91    60    61    2
    92   108   109    1
    93   109   110   ar
    94   112   113    1
    95   105   106    2
    96   113   114    1
    97    53    54   ar
    98    53    55   ar
    99    91    92    1
   100    54    56   ar
   101   124   114   am
   102   124   125    1
   103   114   115    2
   104   128   125    1
   105   128   129    1
   106   131   129    1
   107    55    57   ar
   108   130   129    1
   109   125   126    1
   110    56    57   ar
   111    63    64    1
   112    92    95    1
   113    92    93    1
   114    95    96    1
   115    93    94    2
   116   137   136    1
   117   126   127    2
   118    97    96    1
   119    65    64    1
   120    65    66    2
   121    64    67    1
   122    68    67    1
   123    68    70    1
   124    96    98    1
   125    67    69    1
   126   136   133    1
   127   132   133    1
   128   133   134    1
   129   145   143    1
   130   134   138   am
   131   134   135    2
   132   138   139    1
   133   142   143    1
   134   142   139    1
   135   143   144    1
   136   139   140    1
   137   152   151    1
   138   153   151    1
   139   151   150    1
   140   140   141    2
   141   163   164   ar
   142   163   161   ar
   143   164   162   ar
   144   161   159   ar
   145   150   147    1
   146   162   160   ar
   147   146   147    1
   148   159   160   ar
   149   159   158    1
   150   147   148    1
   151   157   156    2
   152   158   155    1
   153   155   156    1
   154   155   154    1
   155   148   149    2
