@<TRIPOS>MOLECULE
tmp/1w5cB01.pdb
 158 151 0 0 0
SMALL
GASTEIGER

@<TRIPOS>ATOM
      1  N         12.2930   42.9290   13.2940 N.3     7  HIS7       -0.1226
      2  CA        10.9720   42.4330   12.8920 C.3     7  HIS7        0.1752
      3  C         10.0390   43.4910   12.3400 C.2     7  HIS7        0.2596
      4  O          8.8360   43.2590   12.2870 O.2     7  HIS7       -0.2718
      5  CB        10.2910   41.7140   14.0600 C.3     7  HIS7        0.0759
      6  CG         9.9660   42.5740   15.2700 C.ar    7  HIS7        0.0818
      7  ND1       10.8110   42.9410   16.2180 N.ar    7  HIS7       -0.2268
      8  CD2        8.7380   43.1280   15.5620 C.ar    7  HIS7        0.1154
      9  CE1       10.1620   43.6950   17.0720 C.ar    7  HIS7        0.1986
     10  NE2        8.9080   43.8120   16.6810 N.ar    7  HIS7       -0.2212
     11  N         10.6170   44.5900   11.9490 N.am    8  THR8       -0.1953
     12  CA         9.8500   45.7360   11.4950 C.3     8  THR8        0.1897
     13  C          9.3530   45.5840   10.0740 C.2     8  THR8        0.2313
     14  O          8.1990   45.9160    9.7380 O.2     8  THR8       -0.2863
     15  CB        10.4870   47.0550   11.8180 C.3     8  THR8        0.1794
     16  OG1       11.9050   46.9500   11.6250 O.3     8  THR8       -0.2208
     17  CG2       10.1990   47.4890   13.2320 C.3     8  THR8        0.0378
     18  N          7.6030   44.1150    8.6570 N.3    10  LEU10      -0.1231
     19  CA         6.1420   44.0430    8.4520 C.3    10  LEU10       0.1693
     20  C          5.6130   45.4890    8.4090 C.2    10  LEU10       0.2591
     21  O          4.7580   45.7980    7.5740 O.2    10  LEU10      -0.2718
     22  CB         5.4820   43.3050    9.5980 C.3    10  LEU10       0.0284
     23  CG         6.1960   41.9980    9.9860 C.3    10  LEU10       0.0019
     24  CD1        5.5300   41.3510   11.1830 C.3    10  LEU10       0.0001
     25  CD2        6.2980   41.0120    8.8270 C.3    10  LEU10       0.0001
     26  N          6.0700   46.3650    9.3030 N.am   11  ILE11      -0.1980
     27  CA         5.5770   47.8200    9.5000 C.3    11  ILE11       0.1595
     28  C          5.0430   48.3380    8.1640 C.2    11  ILE11       0.2287
     29  O          5.3190   47.7860    7.0890 O.2    11  ILE11      -0.2864
     30  CB         6.6800   48.7310    9.8330 C.3    11  ILE11       0.0276
     31  CG1        7.6970   48.8630    8.6910 C.3    11  ILE11       0.0022
     32  CG2        7.3370   48.2550   11.1110 C.3    11  ILE11       0.0022
     33  CD1        8.7380   49.9320    8.9510 C.3    11  ILE11       0.0001
     34  N          2.2340   41.5400    6.7780 N.3    17  LEU17      -0.1245
     35  CA         2.0820   41.6980    8.2080 C.3    17  LEU17       0.1561
     36  C          0.9750   40.7400    8.6350 C.2    17  LEU17       0.2260
     37  O          1.0880   40.0750    9.6650 O.2    17  LEU17      -0.2867
     38  CB         1.6340   43.1110    8.5330 C.3    17  LEU17       0.0270
     39  CG         1.2390   43.2490    9.9870 C.3    17  LEU17       0.0019
     40  CD1        2.4710   42.9670   10.8110 C.3    17  LEU17       0.0001
     41  CD2        0.6840   44.6290   10.2660 C.3    17  LEU17       0.0001
     42  N          2.2510   37.4830    9.2310 N.3    20  ALA20      -0.1231
     43  CA         2.8400   37.4710   10.5450 C.3    20  ALA20       0.1694
     44  C          1.7450   37.2620   11.5600 C.2    20  ALA20       0.2592
     45  O          1.8740   36.4450   12.4580 O.2    20  ALA20      -0.2718
     46  CB         3.5280   38.7580   10.8010 C.3    20  ALA20       0.0304
     47  N          0.6480   37.9890   11.4110 N.am   21  HIS21      -0.1976
     48  CA        -0.4520   37.8640   12.3510 C.3    21  HIS21       0.1656
     49  C         -1.2370   36.5820   12.2000 C.2    21  HIS21       0.2291
     50  O         -1.6290   35.9630   13.1820 O.2    21  HIS21      -0.2864
     51  CB        -1.3730   39.0730   12.2340 C.3    21  HIS21       0.0771
     52  CG        -0.8300   40.3000   12.8990 C.ar   21  HIS21       0.0820
     53  ND1       -1.6320   41.3370   13.3230 N.ar   21  HIS21      -0.2267
     54  CD2        0.4350   40.6370   13.2490 C.ar   21  HIS21       0.1154
     55  CE1       -0.8860   42.2570   13.9100 C.ar   21  HIS21       0.1986
     56  NE2        0.3730   41.8570   13.8800 N.ar   21  HIS21      -0.2212
     57  N          0.8410   33.9940   14.1400 N.3    24  HIS24      -0.1226
     58  CA         0.7830   34.0640   15.5800 C.3    24  HIS24       0.1752
     59  C         -0.5430   33.5670   16.0950 C.2    24  HIS24       0.2596
     60  O         -0.5870   32.9820   17.1560 O.2    24  HIS24      -0.2718
     61  CB         1.0460   35.4760   16.0560 C.3    24  HIS24       0.0759
     62  CG         0.8520   35.6690   17.5250 C.ar   24  HIS24       0.0818
     63  ND1       -0.3850   35.6050   18.1290 N.ar   24  HIS24      -0.2268
     64  CD2        1.7420   35.9320   18.5120 C.ar   24  HIS24       0.1154
     65  CE1       -0.2450   35.8180   19.4270 C.ar   24  HIS24       0.1986
     66  NE2        1.0360   36.0200   19.6870 N.ar   24  HIS24      -0.2212
     67  N         -1.6310   33.7990   15.3690 N.am   25  THR25      -0.1953
     68  CA        -2.9230   33.2830   15.8240 C.3    25  THR25       0.1897
     69  C         -2.7030   31.7720   15.9300 C.2    25  THR25       0.2313
     70  O         -2.6260   31.2330   17.0300 O.2    25  THR25      -0.2863
     71  CB        -4.0910   33.5920   14.8080 C.3    25  THR25       0.1794
     72  OG1       -4.4220   34.9800   14.8720 O.3    25  THR25      -0.2208
     73  CG2       -5.3460   32.8090   15.1390 C.3    25  THR25       0.0378
     74  N          0.3770   53.3660   11.9310 N.3   232  ILE232     -0.1231
     75  CA         0.3620   52.1680   12.7890 C.3   232  ILE232      0.1692
     76  C          0.9340   52.2860   14.2170 C.2   232  ILE232      0.2591
     77  O          0.2410   51.9850   15.1910 O.2   232  ILE232     -0.2718
     78  CB         1.0160   51.0130   12.0630 C.3   232  ILE232      0.0266
     79  CG1        0.2710   50.8310   10.7390 C.3   232  ILE232      0.0019
     80  CG2        0.9610   49.6970   12.9230 C.3   232  ILE232      0.0020
     81  CD1        0.4790   49.4960   10.1150 C.3   232  ILE232      0.0001
     82  N          2.1920   52.6740   14.3630 N.am  233  GLU233     -0.1979
     83  CA         2.7230   52.8330   15.7020 C.3   233  GLU233      0.1602
     84  C          1.5630   53.2170   16.6060 C.2   233  GLU233      0.2287
     85  O          1.1410   52.4220   17.4270 O.2   233  GLU233     -0.2864
     86  CB         3.7640   53.9580   15.7520 C.3   233  GLU233      0.0415
     87  CG         5.0990   53.6050   15.1630 C.3   233  GLU233      0.1163
     88  CD         5.6380   52.3250   15.7160 C.2   233  GLU233      0.3649
     89  OE1        6.0050   52.2730   16.9040 O.co2 233  GLU233     -0.2457
     90  OE2        5.6780   51.3570   14.9480 O.co2 233  GLU233     -0.2457
     91  N         -1.5580   53.2100   16.4020 N.3   235  VAL235     -0.1231
     92  CA        -2.6200   52.2490   16.5740 C.3   235  VAL235      0.1692
     93  C         -2.2000   51.2330   17.6140 C.2   235  VAL235      0.2591
     94  O         -2.9630   50.9170   18.5220 O.2   235  VAL235     -0.2718
     95  CB        -2.9190   51.5080   15.2950 C.3   235  VAL235      0.0266
     96  CG1       -3.9760   50.4620   15.5450 C.3   235  VAL235      0.0020
     97  CG2       -3.3670   52.4860   14.2490 C.3   235  VAL235      0.0020
     98  N         -0.9760   50.7340   17.4920 N.am  236  LEU236     -0.1980
     99  CA        -0.4520   49.7350   18.4150 C.3   236  LEU236      0.1596
    100  C         -0.4860   50.1470   19.8830 C.2   236  LEU236      0.2287
    101  O         -1.1870   49.5410   20.6790 O.2   236  LEU236     -0.2864
    102  CB         0.9770   49.4030   18.0320 C.3   236  LEU236      0.0297
    103  CG         1.7770   48.4170   18.8760 C.3   236  LEU236      0.0022
    104  CD1        1.6190   47.0180   18.3200 C.3   236  LEU236      0.0001
    105  CD2        3.2290   48.8330   18.8360 C.3   236  LEU236      0.0001
    106  N         -3.8520   50.3220   21.3540 N.3   239  SER239     -0.1202
    107  CA        -4.4500   49.0310   21.7280 C.3   239  SER239      0.2020
    108  C         -3.6800   48.3500   22.8600 C.2   239  SER239      0.2618
    109  O         -4.2660   47.6620   23.6800 O.2   239  SER239     -0.2717
    110  CB        -4.4830   48.0560   20.5360 C.3   239  SER239      0.2103
    111  OG        -5.1950   48.5950   19.4410 O.3   239  SER239     -0.2182
    112  N         -2.3630   48.5210   22.8880 N.am  240  ILE240     -0.1979
    113  CA        -1.5580   47.9170   23.9210 C.3   240  ILE240      0.1595
    114  C         -1.9190   48.4780   25.2730 C.2   240  ILE240      0.2287
    115  O         -1.9310   47.7560   26.2460 O.2   240  ILE240     -0.2864
    116  CB        -0.0890   48.1710   23.6990 C.3   240  ILE240      0.0276
    117  CG1        0.4470   47.2280   22.6310 C.3   240  ILE240      0.0022
    118  CG2        0.6590   47.9900   24.9920 C.3   240  ILE240      0.0022
    119  CD1        1.9820   47.2030   22.5300 C.3   240  ILE240      0.0001
    120  N         -4.9490   46.6810   26.3420 N.3   243  VAL243     -0.1245
    121  CA        -4.7870   45.2730   26.7300 C.3   243  VAL243      0.1561
    122  C         -4.1730   45.3880   28.1230 C.2   243  VAL243      0.2260
    123  O         -4.5470   44.7170   29.0880 O.2   243  VAL243     -0.2867
    124  CB        -3.8220   44.5780   25.7570 C.3   243  VAL243      0.0252
    125  CG1       -2.7420   43.8340   26.4910 C.3   243  VAL243      0.0019
    126  CG2       -4.5900   43.6450   24.8810 C.3   243  VAL243      0.0019
    127  N          3.6740   45.3520   29.8700 N.3   460  PHE460     -0.1241
    128  CA         3.1440   45.9880   28.6680 C.3   460  PHE460      0.1605
    129  C          3.0410   47.4760   28.8180 C.2   460  PHE460      0.2264
    130  O          2.7410   48.1670   27.8660 O.2   460  PHE460     -0.2867
    131  CB         1.7870   45.4060   28.2720 C.3   460  PHE460      0.0534
    132  CG         1.8910   44.2240   27.3660 C.ar  460  PHE460     -0.0203
    133  CD1        1.2400   44.2120   26.1530 C.ar  460  PHE460     -0.0042
    134  CD2        2.6910   43.1430   27.7100 C.ar  460  PHE460     -0.0042
    135  CE1        1.3840   43.1600   25.3000 C.ar  460  PHE460     -0.0003
    136  CE2        2.8440   42.0740   26.8570 C.ar  460  PHE460     -0.0003
    137  CZ         2.1880   42.0820   25.6440 C.ar  460  PHE460     -0.0000
    138  N          6.2810   52.2380   22.5120 N.3   467  HIS467     -0.1241
    139  CA         5.7830   52.2540   21.1360 C.3   467  HIS467      0.1621
    140  C          5.1160   53.5840   20.8510 C.2   467  HIS467      0.2264
    141  O          5.4560   54.2620   19.8800 O.2   467  HIS467     -0.2867
    142  CB         4.8160   51.0970   20.8870 C.3   467  HIS467      0.0745
    143  CG         5.5130   49.8310   20.5170 C.ar  467  HIS467      0.0817
    144  ND1        6.4690   49.7840   19.5300 N.ar  467  HIS467     -0.2268
    145  CD2        5.4270   48.5740   21.0140 C.ar  467  HIS467      0.1154
    146  CE1        6.9460   48.5570   19.4350 C.ar  467  HIS467      0.1986
    147  NE2        6.3330   47.8000   20.3230 N.ar  467  HIS467     -0.2212
    148  N          7.5370   56.1170   19.5720 N.3   470  ARG470     -0.1245
    149  CA         7.7030   56.1150   18.1260 C.3   470  ARG470      0.1563
    150  C          6.5400   56.8190   17.4510 C.2   470  ARG470      0.2260
    151  O          6.7150   57.5060   16.4520 O.2   470  ARG470     -0.2867
    152  CB         7.7440   54.6990   17.5960 C.3   470  ARG470      0.0307
    153  CG         8.6810   53.8020   18.3370 C.3   470  ARG470      0.0489
    154  CD         8.7480   52.4620   17.6320 C.3   470  ARG470      0.2205
    155  NE         9.3490   52.6080   16.3140 N.pl3 470  ARG470     -0.0865
    156  CZ         9.4150   51.6420   15.4080 C.cat 470  ARG470      0.5346
    157  NH1        8.9110   50.4410   15.6710 N.pl3 470  ARG470      0.1354
    158  NH2        9.9820   51.8830   14.2340 N.pl3 470  ARG470      0.1354
@<TRIPOS>BOND
     1    34    35    1
     2    29    28    2
     3    21    20    2
     4    28    27    1
     5    35    38    1
     6    35    36    1
     7    20    19    1
     8    20    26   am
     9    19    18    1
    10    19    22    1
    11    38    39    1
    12    36    37    2
    13    31    33    1
    14    31    30    1
    15    25    23    1
    16    42    43    1
    17    26    27    1
    18    27    30    1
    19    22    23    1
    20    14    13    2
    21    30    32    1
    22    23    24    1
    23    39    41    1
    24    39    40    1
    25    13    12    1
    26    81    79    1
    27    43    46    1
    28    43    44    1
    29    79    78    1
    30    47    44   am
    31    47    48    1
    32    12    15    1
    33    12    11    1
    34    44    45    2
    35    16    15    1
    36    15    17    1
    37    74    75    1
    38    11     3   am
    39    78    75    1
    40    78    80    1
    41    49    48    1
    42    49    50    2
    43    51    48    1
    44    51    52    1
    45     4     3    2
    46     3     2    1
    47    75    76    1
    48     2     1    1
    49     2     5    1
    50    52    54   ar
    51    52    53   ar
    52    54    56   ar
    53    53    55   ar
    54    56    55   ar
    55     5     6    1
    56    57    58    1
    57    76    82   am
    58    76    77    2
    59   158   156    1
    60    97    95    1
    61    82    83    1
    62    71    72    1
    63    71    73    1
    64    71    68    1
    65    90    88   ar
    66    87    88    1
    67    87    86    1
    68     6     8   ar
    69     6     7   ar
    70    95    96    1
    71    95    92    1
    72    67    68    1
    73    67    59   am
    74   156   157    1
    75   156   155    2
    76     8    10   ar
    77    58    61    1
    78    58    59    1
    79    83    86    1
    80    83    84    1
    81    88    89   ar
    82    68    69    1
    83    69    70    2
    84    61    62    1
    85    59    60    2
    86     7     9   ar
    87   155   154    1
    88    91    92    1
    89   151   150    2
    90    92    93    1
    91    84    85    2
    92    10     9   ar
    93   150   149    1
    94    98    93   am
    95    98    99    1
    96    62    63   ar
    97    62    64   ar
    98   152   149    1
    99   152   153    1
   100    93    94    2
   101   154   153    1
   102   102    99    1
   103   102   103    1
   104   149   148    1
   105    63    65   ar
   106   104   103    1
   107    99   100    1
   108    64    66   ar
   109   105   103    1
   110    65    66   ar
   111   146   144   ar
   112   146   147   ar
   113   111   110    1
   114   144   143   ar
   115   141   140    2
   116   100   101    2
   117   147   145   ar
   118   143   142    1
   119   143   145   ar
   120   110   107    1
   121   140   139    1
   122   142   139    1
   123   139   138    1
   124   106   107    1
   125   107   108    1
   126   119   117    1
   127   117   116    1
   128   108   112   am
   129   108   109    2
   130   112   113    1
   131   116   113    1
   132   116   118    1
   133   113   114    1
   134   126   124    1
   135   114   115    2
   136   135   137   ar
   137   135   133   ar
   138   137   136   ar
   139   124   125    1
   140   124   121    1
   141   133   132   ar
   142   120   121    1
   143   121   122    1
   144   136   134   ar
   145   132   134   ar
   146   132   131    1
   147   130   129    2
   148   122   123    2
   149   131   128    1
   150   128   129    1
   151   128   127    1
