@<TRIPOS>MOLECULE
tmp/1w5sA00.pdb
 191 185 0 0 0
SMALL
GASTEIGER

@<TRIPOS>ATOM
      1  N         10.1970   82.0230   57.9960 N.3    10  ASP10      -0.1225
      2  CA        10.9330   80.7970   58.3810 C.3    10  ASP10       0.1805
      3  C         11.3890   80.1180   57.0940 C.2    10  ASP10       0.2597
      4  O         10.7250   80.2600   56.0600 O.2    10  ASP10      -0.2718
      5  CB        10.1090   79.8260   59.2610 C.3    10  ASP10       0.1424
      6  CG         9.8150   80.3680   60.7130 C.2    10  ASP10       0.3668
      7  OD1       10.6730   81.0410   61.3870 O.co2  10  ASP10      -0.2456
      8  OD2        8.6810   80.1060   61.1940 O.co2  10  ASP10      -0.2456
      9  N         12.5210   79.4000   57.1480 N.am   11  GLU11      -0.1979
     10  CA        13.0420   78.6090   56.0160 C.3    11  GLU11       0.1602
     11  C         12.0070   77.6210   55.4510 C.2    11  GLU11       0.2287
     12  O         12.0770   77.2520   54.2900 O.2    11  GLU11      -0.2864
     13  CB        14.3080   77.8010   56.4310 C.3    11  GLU11       0.0415
     14  CG        15.6230   78.6230   56.8710 C.3    11  GLU11       0.1163
     15  CD        16.7560   78.7680   55.7640 C.2    11  GLU11       0.3649
     16  OE1       17.3770   79.8940   55.5790 O.co2  11  GLU11      -0.2457
     17  OE2       17.0200   77.7150   55.0960 O.co2  11  GLU11      -0.2457
     18  N          8.5030   77.8780   55.4250 N.3    13  TYR13      -0.1227
     19  CA         7.2460   78.4710   54.9800 C.3    13  TYR13       0.1736
     20  C          7.0820   78.4080   53.4760 C.2    13  TYR13       0.2595
     21  O          7.9510   78.8220   52.7460 O.2    13  TYR13      -0.2718
     22  CB         7.1430   79.9360   55.4210 C.3    13  TYR13       0.0548
     23  CG         5.8840   80.6820   54.9810 C.ar   13  TYR13      -0.0200
     24  CD1        4.6680   80.5710   55.7090 C.ar   13  TYR13      -0.0009
     25  CD2        5.8920   81.4820   53.8480 C.ar   13  TYR13      -0.0009
     26  CE1        3.5270   81.2650   55.3170 C.ar   13  TYR13       0.0417
     27  CE2        4.7630   82.1710   53.4420 C.ar   13  TYR13       0.0417
     28  CZ         3.5780   82.0650   54.1830 C.ar   13  TYR13       0.1957
     29  OH         2.4630   82.7600   53.7760 O.3    13  TYR13      -0.2866
     30  N          5.9660   77.8400   53.0240 N.am   14  ILE14      -0.1966
     31  CA         5.5420   78.0060   51.6440 C.3    14  ILE14       0.1712
     32  C          4.3530   78.9750   51.6910 C.2    14  ILE14       0.2458
     33  O          3.4880   78.8570   52.5520 O.2    14  ILE14      -0.2730
     34  CB         5.0290   76.7290   50.9980 C.3    14  ILE14       0.0289
     35  CG1        5.8270   75.4750   51.4010 C.3    14  ILE14       0.0022
     36  CG2        5.0020   76.9190   49.4920 C.3    14  ILE14       0.0023
     37  CD1        7.0480   75.2170   50.5870 C.3    14  ILE14       0.0001
     38  N          4.2970   79.9080   50.7350 N.am   15  PRO15      -0.2727
     39  CA         3.1330   80.7690   50.6390 C.3    15  PRO15       0.1402
     40  C          1.8990   80.0190   50.0870 C.2    15  PRO15       0.2269
     41  O          2.0080   78.9400   49.4700 O.2    15  PRO15      -0.2865
     42  CB         3.5780   81.8890   49.6590 C.3    15  PRO15       0.0296
     43  CG         4.7910   81.4210   49.0270 C.3    15  PRO15       0.0237
     44  CD         5.2330   80.1220   49.6320 C.3    15  PRO15       0.0939
     45  N          1.8230   80.4940   44.5510 N.3    18  LEU18      -0.1231
     46  CA         3.0800   80.8230   43.9380 C.3    18  LEU18       0.1693
     47  C          2.8650   81.9680   42.9710 C.2    18  LEU18       0.2592
     48  O          1.8130   82.0520   42.3930 O.2    18  LEU18      -0.2718
     49  CB         3.6840   79.6190   43.2090 C.3    18  LEU18       0.0284
     50  CG         4.1800   78.4920   44.1070 C.3    18  LEU18       0.0019
     51  CD1        4.7100   77.4080   43.2570 C.3    18  LEU18       0.0001
     52  CD2        5.2530   78.9290   45.1170 C.3    18  LEU18       0.0001
     53  N          3.8260   82.8800   42.8390 N.am   19  ARG19      -0.1966
     54  CA         3.7130   83.9630   41.8780 C.3    19  ARG19       0.1729
     55  C          4.8260   83.9170   40.8750 C.2    19  ARG19       0.2616
     56  O          4.8460   84.7170   39.9220 O.2    19  ARG19      -0.2715
     57  CB         3.7010   85.3310   42.5570 C.3    19  ARG19       0.0348
     58  CG         2.4700   85.5810   43.3850 C.3    19  ARG19       0.0492
     59  CD         2.5370   86.9480   44.0450 C.3    19  ARG19       0.2205
     60  NE         1.3610   87.2280   44.8360 N.pl3  19  ARG19      -0.0865
     61  CZ         1.1490   88.3430   45.5430 C.cat  19  ARG19       0.5346
     62  NH1        2.0560   89.3270   45.6210 N.pl3  19  ARG19       0.1354
     63  NH2        0.0150   88.4680   46.1980 N.pl3  19  ARG19       0.1354
     64  N          5.7620   83.0030   41.0690 N.am   20  VAL20      -0.1963
     65  CA         6.8770   82.8780   40.1470 C.3    20  VAL20       0.1727
     66  C          6.9640   81.4830   39.5030 C.2    20  VAL20       0.2616
     67  O          7.4170   81.3480   38.3380 O.2    20  VAL20      -0.2715
     68  CB         8.2280   83.2550   40.8100 C.3    20  VAL20       0.0290
     69  CG1        9.3740   82.9160   39.8830 C.3    20  VAL20       0.0023
     70  CG2        8.2840   84.7550   41.1330 C.3    20  VAL20       0.0023
     71  N          6.5950   80.4450   40.2190 N.am   21  ARG21      -0.1977
     72  CA         6.7420   79.1080   39.6160 C.3    21  ARG21       0.1597
     73  C          5.3380   78.5370   39.3330 C.2    21  ARG21       0.2287
     74  O          5.1530   77.3350   39.2430 O.2    21  ARG21      -0.2864
     75  CB         7.4300   78.1520   40.6300 C.3    21  ARG21       0.0334
     76  CG         8.8960   78.4520   40.9410 C.3    21  ARG21       0.0492
     77  CD         9.7740   78.3140   39.7660 C.3    21  ARG21       0.2205
     78  NE        11.1850   78.1500   40.1480 N.pl3  21  ARG21      -0.0865
     79  CZ        12.1920   78.5000   39.3450 C.cat  21  ARG21       0.5346
     80  NH1       11.9080   79.0680   38.1450 N.pl3  21  ARG21       0.1354
     81  NH2       13.4690   78.3380   39.7310 N.pl3  21  ARG21       0.1354
     82  N         21.5740   76.8430   44.6150 N.3    55  VAL55      -0.1231
     83  CA        20.7420   76.5290   45.7830 C.3    55  VAL55       0.1692
     84  C         19.7620   77.6520   45.9370 C.2    55  VAL55       0.2593
     85  O         20.0500   78.7340   45.5040 O.2    55  VAL55      -0.2718
     86  CB        21.5470   76.3670   47.1080 C.3    55  VAL55       0.0266
     87  CG1       22.6350   75.3920   46.9220 C.3    55  VAL55       0.0020
     88  CG2       22.1960   77.6690   47.5010 C.3    55  VAL55       0.0020
     89  N         18.6280   77.3870   46.5640 N.am   56  GLY56      -0.1942
     90  CA        17.6470   78.3920   46.9200 C.3    56  GLY56       0.2014
     91  C         16.8190   78.8630   45.7510 C.2    56  GLY56       0.2639
     92  O         16.2700   79.9700   45.7820 O.2    56  GLY56      -0.2714
     93  N         16.6900   77.9930   44.7500 N.am   57  ILE57      -0.1963
     94  CA        16.0270   78.3100   43.5070 C.3    57  ILE57       0.1727
     95  C         14.5610   77.7780   43.3880 C.2    57  ILE57       0.2617
     96  O         13.9370   77.8840   42.3040 O.2    57  ILE57      -0.2715
     97  CB        16.8840   77.8030   42.3130 C.3    57  ILE57       0.0290
     98  CG1       17.0570   76.2880   42.4000 C.3    57  ILE57       0.0022
     99  CG2       18.2600   78.5080   42.3330 C.3    57  ILE57       0.0023
    100  CD1       17.6940   75.6850   41.2590 C.3    57  ILE57       0.0001
    101  N         14.0240   77.2440   44.4960 N.am   58  GLY58      -0.1940
    102  CA        12.6250   76.8710   44.5560 C.3    58  GLY58       0.2014
    103  C         12.3490   75.3910   44.2410 C.2    58  GLY58       0.2639
    104  O         11.2400   75.0130   43.9490 O.2    58  GLY58      -0.2714
    105  N         13.3660   74.5600   44.3010 N.am   59  LYS59      -0.1963
    106  CA        13.2140   73.1560   44.0370 C.3    59  LYS59       0.1728
    107  C         12.2730   72.5500   45.0390 C.2    59  LYS59       0.2617
    108  O         11.1850   72.0940   44.6500 O.2    59  LYS59      -0.2715
    109  CB        14.5390   72.4580   44.0330 C.3    59  LYS59       0.0311
    110  CG        15.3670   72.7660   42.8190 C.3    59  LYS59       0.0038
    111  CD        16.6140   71.8520   42.7520 C.3    59  LYS59       0.0206
    112  CE        17.4660   71.7910   44.0940 C.3    59  LYS59       0.1093
    113  NZ        18.1610   73.1260   44.3730 N.3    59  LYS59      -0.1314
    114  N         12.6530   72.6030   46.3200 N.am   60  THR60      -0.1937
    115  CA        11.8390   72.0620   47.4510 C.3    60  THR60       0.2028
    116  C         10.4580   72.6620   47.4530 C.2    60  THR60       0.2642
    117  O          9.4810   71.9430   47.5560 O.2    60  THR60      -0.2714
    118  CB        12.6090   72.2540   48.7660 C.3    60  THR60       0.1808
    119  OG1       13.7670   71.4630   48.6290 O.3    60  THR60      -0.2208
    120  CG2       11.9230   71.7240   50.0630 C.3    60  THR60       0.0379
    121  N         10.3700   73.9700   47.2850 N.am   61  THR61      -0.1950
    122  CA         9.1250   74.6650   47.3020 C.3    61  THR61       0.1897
    123  C          8.2190   74.2400   46.1970 C.2    61  THR61       0.2313
    124  O          7.0370   74.0400   46.4140 O.2    61  THR61      -0.2863
    125  CB         9.4070   76.1890   47.1400 C.3    61  THR61       0.1794
    126  OG1       10.3400   76.6120   48.1450 O.3    61  THR61      -0.2208
    127  CG2        8.1710   76.9980   47.2940 C.3    61  THR61       0.0378
    128  N         16.8140   82.2450   39.8670 N.3   209  TYR209     -0.1241
    129  CA        15.9400   83.4190   39.7880 C.3   209  TYR209      0.1605
    130  C         16.5880   84.6830   39.2700 C.2   209  TYR209      0.2264
    131  O         17.7050   85.0320   39.6430 O.2   209  TYR209     -0.2867
    132  CB        15.3070   83.7440   41.1500 C.3   209  TYR209      0.0534
    133  CG        14.3130   82.6830   41.5620 C.ar  209  TYR209     -0.0201
    134  CD1       14.4640   81.9820   42.7580 C.ar  209  TYR209     -0.0009
    135  CD2       13.2120   82.3870   40.7450 C.ar  209  TYR209     -0.0009
    136  CE1       13.5350   81.0350   43.1520 C.ar  209  TYR209      0.0417
    137  CE2       12.3170   81.4710   41.1010 C.ar  209  TYR209      0.0417
    138  CZ        12.4770   80.7690   42.3140 C.ar  209  TYR209      0.1957
    139  OH        11.5490   79.8270   42.6500 O.3   209  TYR209     -0.2866
    140  N          9.0640   87.5480   44.5360 N.3   217  ILE217     -0.1245
    141  CA         9.1120   86.6770   45.7430 C.3   217  ILE217      0.1561
    142  C          9.2000   87.4680   47.0190 C.2   217  ILE217      0.2260
    143  O          8.5540   87.1430   47.9550 O.2   217  ILE217     -0.2867
    144  CB        10.3150   85.6730   45.6550 C.3   217  ILE217      0.0252
    145  CG1        9.9560   84.5790   44.6410 C.3   217  ILE217      0.0019
    146  CG2       10.7060   85.0590   46.9980 C.3   217  ILE217      0.0019
    147  CD1       11.1190   83.7200   44.2200 C.3   217  ILE217      0.0001
    148  N          5.9500   89.4300   47.9390 N.3   220  GLN220     -0.1231
    149  CA         4.8380   88.6070   48.4330 C.3   220  GLN220      0.1698
    150  C          5.0610   88.3090   49.9330 C.2   220  GLN220      0.2592
    151  O          4.1190   88.2580   50.7470 O.2   220  GLN220     -0.2718
    152  CB         4.7330   87.3250   47.6010 C.3   220  GLN220      0.0381
    153  CG         3.9150   86.2170   48.2630 C.3   220  GLN220      0.0905
    154  CD         3.8410   84.9590   47.4310 C.2   220  GLN220      0.2608
    155  OE1        4.8800   84.3860   47.0260 O.2   220  GLN220     -0.2717
    156  NE2        2.6140   84.4880   47.1990 N.am  220  GLN220     -0.0878
    157  N          6.3300   88.0970   50.2770 N.am  221  ARG221     -0.1980
    158  CA         6.6970   87.9050   51.6800 C.3   221  ARG221      0.1597
    159  C          6.4740   89.1940   52.4840 C.2   221  ARG221      0.2287
    160  O          6.0550   89.1550   53.6310 O.2   221  ARG221     -0.2864
    161  CB         8.1670   87.5240   51.7730 C.3   221  ARG221      0.0334
    162  CG         8.4940   86.2590   51.1140 C.3   221  ARG221      0.0492
    163  CD         7.7960   85.0850   51.7120 C.3   221  ARG221      0.2205
    164  NE         8.1240   83.9130   50.9330 N.pl3 221  ARG221     -0.0865
    165  CZ         8.7190   82.8310   51.3880 C.cat 221  ARG221      0.5346
    166  NH1        8.9500   82.6840   52.6520 N.pl3 221  ARG221      0.1354
    167  NH2        8.9640   81.8320   50.5700 N.pl3 221  ARG221      0.1354
    168  N         16.6850   82.5930   46.1590 N.3   253  ALA253     -0.1231
    169  CA        15.5580   83.1920   46.8650 C.3   253  ALA253      0.1694
    170  C         15.7470   83.0560   48.3820 C.2   253  ALA253      0.2591
    171  O         15.2790   83.8920   49.1320 O.2   253  ALA253     -0.2718
    172  CB        14.2220   82.5650   46.4150 C.3   253  ALA253      0.0304
    173  N         16.4870   82.0530   48.8180 N.am  254  ARG254     -0.1980
    174  CA        16.7880   81.8990   50.2140 C.3   254  ARG254      0.1597
    175  C         17.6870   83.0260   50.6880 C.2   254  ARG254      0.2287
    176  O         17.3590   83.6490   51.6950 O.2   254  ARG254     -0.2864
    177  CB        17.4230   80.5330   50.5300 C.3   254  ARG254      0.0334
    178  CG        18.0520   80.4930   51.9200 C.3   254  ARG254      0.0492
    179  CD        18.1450   79.1350   52.5150 C.3   254  ARG254      0.2205
    180  NE        18.2480   78.1620   51.4290 N.pl3 254  ARG254     -0.0865
    181  CZ        17.4440   77.1130   51.2060 C.cat 254  ARG254      0.5346
    182  NH1       16.4100   76.7630   52.0330 N.pl3 254  ARG254      0.1354
    183  NH2       17.7190   76.3830   50.1290 N.pl3 254  ARG254      0.1354
    184  N         15.4660   86.2600   50.8260 N.3   257  ILE257     -0.1245
    185  CA        14.4910   86.3470   51.9310 C.3   257  ILE257      0.1561
    186  C         15.2170   86.5340   53.3070 C.2   257  ILE257      0.2260
    187  O         14.7970   87.3160   54.1420 O.2   257  ILE257     -0.2867
    188  CB        13.5250   85.1560   51.9190 C.3   257  ILE257      0.0252
    189  CG1       12.5380   85.3410   50.7700 C.3   257  ILE257      0.0019
    190  CG2       12.7650   84.9530   53.3140 C.3   257  ILE257      0.0019
    191  CD1       11.8610   84.1230   50.3290 C.3   257  ILE257      0.0001
@<TRIPOS>BOND
     1    80    79    1
     2    67    66    2
     3    74    73    2
     4   130   131    2
     5   130   129    1
     6    73    72    1
     7    79    81    1
     8    79    78    2
     9    66    65    1
    10    66    71   am
    11    72    71    1
    12    72    75    1
    13    77    78    1
    14    77    76    1
    15   129   128    1
    16   129   132    1
    17    69    68    1
    18    56    55    2
    19    65    68    1
    20    65    64    1
    21    75    76    1
    22   135   137   ar
    23   135   133   ar
    24    68    70    1
    25    55    64   am
    26    55    54    1
    27   137   138   ar
    28   132   133    1
    29   100    98    1
    30   133   134   ar
    31    54    57    1
    32    54    53    1
    33    96    95    2
    34    97    99    1
    35    97    98    1
    36    97    94    1
    37   138   139    1
    38   138   136   ar
    39    48    47    2
    40    57    58    1
    41   111   110    1
    42   111   112    1
    43   134   136   ar
    44   110   109    1
    45    53    47   am
    46    47    46    1
    47    49    46    1
    48    49    50    1
    49    51    50    1
    50    58    59    1
    51    95    94    1
    52    95   101   am
    53    94    93    1
    54    46    45    1
    55   104   103    2
    56   109   106    1
    57   106   105    1
    58   106   107    1
    59    59    60    1
    60   112   113    1
    61    50    52    1
    62   147   145    1
    63   103   105   am
    64   103   102    1
    65   101   102    1
    66   140   141    1
    67    82    83    1
    68   145   144    1
    69   108   107    2
    70    93    91   am
    71    60    61    2
    72   107   114   am
    73    85    84    2
    74    61    62    1
    75    61    63    1
    76   144   141    1
    77   144   146    1
    78   141   142    1
    79    91    92    2
    80    91    90    1
    81    83    84    1
    82    83    86    1
    83    84    89   am
    84   168   169    1
    85   123   124    2
    86   123   122    1
    87   114   115    1
    88   172   169    1
    89    89    90    1
    90   169   170    1
    91    87    86    1
    92   142   143    2
    93   155   154    2
    94    86    88    1
    95   125   127    1
    96   125   122    1
    97   125   126    1
    98   156   154   am
    99   121   122    1
   100   121   116   am
   101   154   153    1
   102   115   116    1
   103   115   118    1
   104   116   117    2
   105   152   153    1
   106   152   149    1
   107   148   149    1
   108   170   173   am
   109   170   171    2
   110   149   150    1
   111   119   118    1
   112   118   120    1
   113   173   174    1
   114    43    44    1
   115    43    42    1
   116    41    40    2
   117    36    34    1
   118    44    38    1
   119    42    39    1
   120   150   157   am
   121   150   151    2
   122    40    39    1
   123   183   181    1
   124   174   177    1
   125   174   175    1
   126   157   158    1
   127   191   189    1
   128   177   178    1
   129   167   165    1
   130    37    35    1
   131    39    38    1
   132   175   176    2
   133    38    32   am
   134   189   188    1
   135   184   185    1
   136   164   165    2
   137   164   163    1
   138    34    35    1
   139    34    31    1
   140   162   163    1
   141   162   161    1
   142   181   180    2
   143   181   182    1
   144   165   166    1
   145   180   179    1
   146    31    32    1
   147    31    30    1
   148   158   161    1
   149   158   159    1
   150    32    33    2
   151   188   185    1
   152   188   190    1
   153   178   179    1
   154   185   186    1
   155   159   160    2
   156    21    20    2
   157    30    20   am
   158   186   187    2
   159    27    25   ar
   160    27    28   ar
   161    20    19    1
   162    29    28    1
   163    25    23   ar
   164    28    26   ar
   165    12    11    2
   166    19    22    1
   167    19    18    1
   168    23    22    1
   169    23    24   ar
   170    17    15   ar
   171    26    24   ar
   172    11    10    1
   173    16    15   ar
   174    15    14    1
   175    10    13    1
   176    10     9    1
   177     4     3    2
   178    13    14    1
   179     3     9   am
   180     3     2    1
   181     1     2    1
   182     2     5    1
   183     5     6    1
   184     6     8   ar
   185     6     7   ar
