@<TRIPOS>MOLECULE
tmp/1w5tB00.pdb
 203 196 0 0 0
SMALL
GASTEIGER

@<TRIPOS>ATOM
      1  N         15.8350  -18.6380  -26.8440 N.3     9  PHE9       -0.1227
      2  CA        16.4060  -17.3040  -26.6030 C.3     9  PHE9        0.1736
      3  C         17.5880  -17.2940  -25.6580 C.2     9  PHE9        0.2595
      4  O         18.2760  -16.2660  -25.5030 O.2     9  PHE9       -0.2718
      5  CB        15.3220  -16.3040  -26.1600 C.3     9  PHE9        0.0547
      6  CG        14.3520  -15.9900  -27.2390 C.ar    9  PHE9       -0.0202
      7  CD1       13.2260  -16.7830  -27.4450 C.ar    9  PHE9       -0.0042
      8  CD2       14.5920  -14.9320  -28.1040 C.ar    9  PHE9       -0.0042
      9  CE1       12.3440  -16.5120  -28.4740 C.ar    9  PHE9       -0.0003
     10  CE2       13.7060  -14.6530  -29.1230 C.ar    9  PHE9       -0.0003
     11  CZ        12.5830  -15.4560  -29.3090 C.ar    9  PHE9       -0.0000
     12  N         17.8570  -18.4490  -25.0530 N.am   10  ASP10      -0.1960
     13  CA        19.0340  -18.5840  -24.1970 C.3    10  ASP10       0.1840
     14  C         20.3470  -18.5020  -25.0160 C.2    10  ASP10       0.2621
     15  O         20.3950  -18.8990  -26.1720 O.2    10  ASP10      -0.2715
     16  CB        18.9530  -19.8800  -23.3610 C.3    10  ASP10       0.1450
     17  CG        17.8300  -19.8370  -22.2410 C.2    10  ASP10       0.3671
     18  OD1       16.9200  -18.9730  -22.2930 O.co2  10  ASP10      -0.2456
     19  OD2       17.7690  -20.6300  -21.2610 O.co2  10  ASP10      -0.2456
     20  N         21.4060  -18.0180  -24.3670 N.am   11  GLU11      -0.1977
     21  CA        22.6800  -17.6620  -24.9930 C.3    11  GLU11       0.1602
     22  C         23.4130  -18.8130  -25.6590 C.2    11  GLU11       0.2287
     23  O         24.1210  -18.6160  -26.6380 O.2    11  GLU11      -0.2864
     24  CB        23.5850  -17.0100  -23.9460 C.3    11  GLU11       0.0415
     25  CG        22.8280  -16.6800  -22.6700 C.3    11  GLU11       0.1163
     26  CD        23.4040  -15.5050  -21.9050 C.2    11  GLU11       0.3649
     27  OE1       22.6170  -14.5890  -21.5730 O.co2  11  GLU11      -0.2457
     28  OE2       24.6350  -15.4980  -21.6170 O.co2  11  GLU11      -0.2457
     29  N         21.7590  -21.5070  -26.8650 N.3    13  TYR13      -0.1241
     30  CA        20.9460  -22.2320  -27.8430 C.3    13  TYR13       0.1605
     31  C         21.6370  -22.1860  -29.2250 C.2    13  TYR13       0.2264
     32  O         22.0730  -21.1190  -29.6850 O.2    13  TYR13      -0.2867
     33  CB        19.5230  -21.6860  -27.9110 C.3    13  TYR13       0.0534
     34  CG        18.6890  -22.2720  -29.0050 C.ar   13  TYR13      -0.0201
     35  CD1       18.0450  -23.5190  -28.8430 C.ar   13  TYR13      -0.0009
     36  CD2       18.4890  -21.5790  -30.2050 C.ar   13  TYR13      -0.0009
     37  CE1       17.2620  -24.0790  -29.8700 C.ar   13  TYR13       0.0417
     38  CE2       17.6920  -22.1280  -31.2370 C.ar   13  TYR13       0.0417
     39  CZ        17.0830  -23.3800  -31.0510 C.ar   13  TYR13       0.1957
     40  OH        16.3140  -23.9210  -32.0640 O.3    13  TYR13      -0.2866
     41  N         20.5980  -23.1480  -33.0540 N.3    15  PRO15      -0.2116
     42  CA        19.4920  -23.5070  -33.9540 C.3    15  PRO15       0.1372
     43  C         19.7660  -24.7830  -34.7640 C.2    15  PRO15       0.2244
     44  O         20.9390  -25.0710  -35.0280 O.2    15  PRO15      -0.2868
     45  CB        19.3190  -22.2640  -34.8440 C.3    15  PRO15       0.0268
     46  CG        20.4890  -21.4050  -34.6210 C.3    15  PRO15       0.0207
     47  CD        21.2640  -21.8940  -33.4410 C.3    15  PRO15       0.0892
     48  N         21.6260  -23.3980  -39.7830 N.3    18  LEU18      -0.1231
     49  CA        22.0470  -22.0060  -39.9440 C.3    18  LEU18       0.1693
     50  C         21.5110  -21.4320  -41.2330 C.2    18  LEU18       0.2592
     51  O         21.6060  -22.0940  -42.2430 O.2    18  LEU18      -0.2718
     52  CB        23.5670  -21.8980  -39.9800 C.3    18  LEU18       0.0284
     53  CG        24.3620  -22.0550  -38.6900 C.3    18  LEU18       0.0019
     54  CD1       25.8190  -21.7510  -38.9310 C.3    18  LEU18       0.0001
     55  CD2       23.8220  -21.2030  -37.5410 C.3    18  LEU18       0.0001
     56  N         20.9780  -20.2010  -41.2090 N.am   19  ARG19      -0.1966
     57  CA        20.4640  -19.5200  -42.4190 C.3    19  ARG19       0.1729
     58  C         21.3010  -18.3220  -42.7890 C.2    19  ARG19       0.2616
     59  O         21.0240  -17.6640  -43.7800 O.2    19  ARG19      -0.2715
     60  CB        19.0430  -19.0270  -42.2310 C.3    19  ARG19       0.0348
     61  CG        18.0520  -20.0360  -41.7710 C.3    19  ARG19       0.0492
     62  CD        16.6290  -19.5910  -42.0500 C.3    19  ARG19       0.2205
     63  NE        15.6750  -20.6210  -41.6540 N.pl3  19  ARG19      -0.0865
     64  CZ        14.4670  -20.3930  -41.1310 C.cat  19  ARG19       0.5346
     65  NH1       14.0260  -19.1470  -40.9490 N.pl3  19  ARG19       0.1354
     66  NH2       13.6970  -21.4280  -40.7930 N.pl3  19  ARG19       0.1354
     67  N         22.2950  -18.0160  -41.9610 N.am   20  VAL20      -0.1963
     68  CA        23.2990  -17.0200  -42.2400 C.3    20  VAL20       0.1727
     69  C         24.5600  -17.7170  -41.7760 C.2    20  VAL20       0.2616
     70  O         24.5330  -18.3930  -40.7500 O.2    20  VAL20      -0.2715
     71  CB        23.1420  -15.7160  -41.3940 C.3    20  VAL20       0.0290
     72  CG1       24.2000  -14.6830  -41.8280 C.3    20  VAL20       0.0023
     73  CG2       21.7630  -15.1180  -41.5170 C.3    20  VAL20       0.0023
     74  N         25.6510  -17.5490  -42.5360 N.am   21  ARG21      -0.1977
     75  CA        26.9220  -18.2540  -42.3310 C.3    21  ARG21       0.1597
     76  C         26.8370  -19.7850  -42.5840 C.2    21  ARG21       0.2287
     77  O         27.6950  -20.5530  -42.1380 O.2    21  ARG21      -0.2864
     78  CB        27.5410  -17.9130  -40.9650 C.3    21  ARG21       0.0334
     79  CG        27.5880  -16.4090  -40.6640 C.3    21  ARG21       0.0492
     80  CD        28.5330  -15.5490  -41.5270 C.3    21  ARG21       0.2205
     81  NE        28.5580  -14.1470  -41.1010 N.pl3  21  ARG21      -0.0865
     82  CZ        28.1460  -13.0880  -41.8380 C.cat  21  ARG21       0.5346
     83  NH1       27.6680  -13.2050  -43.0970 N.pl3  21  ARG21       0.1354
     84  NH2       28.1790  -11.8890  -41.2710 N.pl3  21  ARG21       0.1354
     85  N         31.4850   -8.0600  -30.8520 N.3    55  VAL55      -0.1231
     86  CA        31.0210   -9.2090  -30.0760 C.3    55  VAL55       0.1692
     87  C         29.6360   -9.6770  -30.5690 C.2    55  VAL55       0.2593
     88  O         28.8890   -8.9220  -31.2320 O.2    55  VAL55      -0.2718
     89  CB        31.0330   -8.9570  -28.5170 C.3    55  VAL55       0.0266
     90  CG1       32.4220   -8.7020  -28.0120 C.3    55  VAL55       0.0020
     91  CG2       30.1050   -7.8390  -28.0980 C.3    55  VAL55       0.0020
     92  N         29.3080  -10.9300  -30.2870 N.am   56  GLY56      -0.1942
     93  CA        27.9790  -11.4590  -30.5970 C.3    56  GLY56       0.2014
     94  C         27.7790  -11.6340  -32.0810 C.2    56  GLY56       0.2639
     95  O         26.6630  -11.4230  -32.5560 O.2    56  GLY56      -0.2714
     96  N         28.8430  -11.9940  -32.8030 N.am   57  ILE57      -0.1963
     97  CA        28.7940  -12.1080  -34.2690 C.3    57  ILE57       0.1727
     98  C         28.9080  -13.5590  -34.7720 C.2    57  ILE57       0.2617
     99  O         29.1960  -13.7980  -35.9650 O.2    57  ILE57      -0.2715
    100  CB        29.8720  -11.2030  -34.9520 C.3    57  ILE57       0.0290
    101  CG1       31.2970  -11.5310  -34.4700 C.3    57  ILE57       0.0022
    102  CG2       29.5960   -9.7690  -34.6730 C.3    57  ILE57       0.0023
    103  CD1       32.4170  -10.6770  -35.0080 C.3    57  ILE57       0.0001
    104  N         28.6790  -14.5180  -33.8850 N.am   58  GLY58      -0.1940
    105  CA        28.5230  -15.8970  -34.3080 C.3    58  GLY58       0.2014
    106  C         29.7480  -16.7970  -34.2880 C.2    58  GLY58       0.2639
    107  O         29.6790  -17.8540  -34.9090 O.2    58  GLY58      -0.2714
    108  N         30.8310  -16.3910  -33.5980 N.am   59  LYS59      -0.1963
    109  CA        32.0830  -17.1500  -33.5330 C.3    59  LYS59       0.1728
    110  C         31.8680  -18.5590  -32.8890 C.2    59  LYS59       0.2617
    111  O         32.2420  -19.5900  -33.4900 O.2    59  LYS59      -0.2715
    112  CB        33.1470  -16.3730  -32.7470 C.3    59  LYS59       0.0311
    113  CG        33.7390  -15.2070  -33.4680 C.3    59  LYS59       0.0038
    114  CD        34.8290  -14.5010  -32.5790 C.3    59  LYS59       0.0206
    115  CE        34.3370  -13.9520  -31.2400 C.3    59  LYS59       0.1093
    116  NZ        33.4900  -12.7300  -31.3200 N.3    59  LYS59      -0.1314
    117  N         31.2430  -18.5710  -31.7110 N.am   60  THR60      -0.1937
    118  CA        30.9600  -19.7570  -30.9270 C.3    60  THR60       0.2028
    119  C         29.8670  -20.6070  -31.5940 C.2    60  THR60       0.2642
    120  O         29.9850  -21.8340  -31.7290 O.2    60  THR60      -0.2714
    121  CB        30.5360  -19.3340  -29.5010 C.3    60  THR60       0.1808
    122  OG1       31.6110  -18.5930  -28.8840 O.3    60  THR60      -0.2208
    123  CG2       30.2630  -20.5530  -28.5810 C.3    60  THR60       0.0379
    124  N         28.8280  -19.9460  -32.0290 N.am   61  THR61      -0.1950
    125  CA        27.7420  -20.5930  -32.7440 C.3    61  THR61       0.1897
    126  C         28.1770  -21.3550  -34.0020 C.2    61  THR61       0.2313
    127  O         27.7490  -22.5050  -34.1980 O.2    61  THR61      -0.2863
    128  CB        26.6970  -19.5220  -33.1220 C.3    61  THR61       0.1794
    129  OG1       26.1820  -19.0340  -31.8920 O.3    61  THR61      -0.2208
    130  CG2       25.4840  -20.1400  -33.8430 C.3    61  THR61       0.0378
    131  N         37.9060  -18.9200  -27.2630 N.3   140  GLU140     -0.1245
    132  CA        38.7080  -17.8650  -26.6220 C.3   140  GLU140      0.1567
    133  C         40.1540  -18.2770  -26.6560 C.2   140  GLU140      0.2260
    134  O         40.8840  -18.1190  -25.6570 O.2   140  GLU140     -0.2867
    135  CB        38.2750  -17.6130  -25.1510 C.3   140  GLU140      0.0388
    136  CG        36.7970  -17.2370  -24.9180 C.3   140  GLU140      0.1160
    137  CD        36.3930  -15.8530  -25.4250 C.2   140  GLU140      0.3649
    138  OE1       35.1680  -15.5400  -25.3470 O.co2 140  GLU140     -0.2457
    139  OE2       37.2690  -15.0550  -25.8820 O.co2 140  GLU140     -0.2457
    140  N         27.3040   -8.4830  -38.4250 N.3   209  TYR209     -0.1241
    141  CA        26.1390   -8.7010  -39.2550 C.3   209  TYR209      0.1605
    142  C         25.5170   -7.4160  -39.7420 C.2   209  TYR209      0.2264
    143  O         25.4310   -6.4240  -39.0100 O.2   209  TYR209     -0.2867
    144  CB        25.0650   -9.5000  -38.4720 C.3   209  TYR209      0.0534
    145  CG        25.4460  -10.9350  -38.1720 C.ar  209  TYR209     -0.0201
    146  CD1       25.7150  -11.3520  -36.8680 C.ar  209  TYR209     -0.0009
    147  CD2       25.5330  -11.8710  -39.1880 C.ar  209  TYR209     -0.0009
    148  CE1       26.0550  -12.6570  -36.5940 C.ar  209  TYR209      0.0417
    149  CE2       25.8790  -13.1680  -38.9160 C.ar  209  TYR209      0.0417
    150  CZ        26.1320  -13.5560  -37.6190 C.ar  209  TYR209      0.1957
    151  OH        26.4900  -14.8620  -37.3790 O.3   209  TYR209     -0.2866
    152  N         18.2950  -13.8500  -39.0420 N.3   217  ILE217     -0.1245
    153  CA        18.5110  -14.4470  -37.7170 C.3   217  ILE217      0.1561
    154  C         17.3220  -14.2920  -36.7750 C.2   217  ILE217      0.2260
    155  O         17.0070  -15.2190  -36.0780 O.2   217  ILE217     -0.2867
    156  CB        19.8010  -13.9190  -37.1070 C.3   217  ILE217      0.0252
    157  CG1       20.9680  -14.4460  -37.9510 C.3   217  ILE217      0.0019
    158  CG2       19.9230  -14.2810  -35.5850 C.3   217  ILE217      0.0019
    159  CD1       22.3600  -13.9670  -37.5080 C.3   217  ILE217      0.0001
    160  N         14.2200  -16.5040  -37.6680 N.3   220  GLN220     -0.1231
    161  CA        14.4350  -17.8990  -37.3170 C.3   220  GLN220      0.1698
    162  C         14.1670  -18.0690  -35.8140 C.2   220  GLN220      0.2592
    163  O         13.4820  -19.0040  -35.4370 O.2   220  GLN220     -0.2718
    164  CB        15.8080  -18.4110  -37.7770 C.3   220  GLN220      0.0381
    165  CG        16.1560  -19.8210  -37.2620 C.3   220  GLN220      0.0905
    166  CD        17.5970  -20.2650  -37.6280 C.2   220  GLN220      0.2608
    167  OE1       18.5720  -19.5580  -37.3700 O.2   220  GLN220     -0.2717
    168  NE2       17.7090  -21.4350  -38.2520 N.am  220  GLN220     -0.0878
    169  N         14.6860  -17.1860  -34.9490 N.am  221  ARG221     -0.1980
    170  CA        14.3010  -17.2890  -33.5130 C.3   221  ARG221      0.1597
    171  C         12.7760  -17.1580  -33.3000 C.2   221  ARG221      0.2287
    172  O         12.1870  -17.9010  -32.4960 O.2   221  ARG221     -0.2864
    173  CB        15.0260  -16.2730  -32.5940 C.3   221  ARG221      0.0334
    174  CG        16.4530  -16.5770  -32.2900 C.3   221  ARG221      0.0492
    175  CD        16.9130  -18.0300  -32.5000 C.3   221  ARG221      0.2205
    176  NE        18.3510  -18.0830  -32.7820 N.pl3 221  ARG221     -0.0865
    177  CZ        19.3030  -18.1230  -31.8580 C.cat 221  ARG221      0.5346
    178  NH1       19.0110  -18.1450  -30.5500 N.pl3 221  ARG221      0.1354
    179  NH2       20.5610  -18.1630  -32.2510 N.pl3 221  ARG221      0.1354
    180  N         24.3410  -10.0890  -33.1580 N.3   253  ALA253     -0.1231
    181  CA        23.1180  -10.9320  -33.1550 C.3   253  ALA253      0.1694
    182  C         22.6080  -11.2630  -31.7270 C.2   253  ALA253      0.2591
    183  O         21.4000  -11.4220  -31.4940 O.2   253  ALA253     -0.2718
    184  CB        23.3410  -12.2150  -33.9540 C.3   253  ALA253      0.0304
    185  N         23.5220  -11.3760  -30.7800 N.am  254  ARG254     -0.1980
    186  CA        23.1540  -11.4860  -29.3740 C.3   254  ARG254      0.1597
    187  C         22.2900  -10.2890  -28.9550 C.2   254  ARG254      0.2287
    188  O         21.2650  -10.4430  -28.3110 O.2   254  ARG254     -0.2864
    189  CB        24.4250  -11.5610  -28.4980 C.3   254  ARG254      0.0334
    190  CG        24.2320  -11.2000  -27.0500 C.3   254  ARG254      0.0492
    191  CD        24.9500  -12.1250  -26.0550 C.3   254  ARG254      0.2205
    192  NE        26.3390  -12.3660  -26.4510 N.pl3 254  ARG254     -0.0865
    193  CZ        26.9550  -13.5550  -26.4740 C.cat 254  ARG254      0.5346
    194  NH1       28.2150  -13.6030  -26.8780 N.pl3 254  ARG254      0.1354
    195  NH2       26.3400  -14.6860  -26.0930 N.pl3 254  ARG254      0.1354
    196  N         18.8950  -10.5610  -30.5790 N.3   257  ILE257     -0.1245
    197  CA        18.0600  -11.6170  -30.0280 C.3   257  ILE257      0.1561
    198  C         17.4770  -11.2180  -28.6570 C.2   257  ILE257      0.2260
    199  O         16.3160  -11.5440  -28.3200 O.2   257  ILE257     -0.2867
    200  CB        18.8780  -12.9420  -29.9560 C.3   257  ILE257      0.0252
    201  CG1       18.9160  -13.5480  -31.3520 C.3   257  ILE257      0.0019
    202  CG2       18.2420  -13.9380  -28.9890 C.3   257  ILE257      0.0019
    203  CD1       20.0280  -14.5360  -31.6090 C.3   257  ILE257      0.0001
@<TRIPOS>BOND
     1    59    58    2
     2    83    82    1
     3    58    57    1
     4    58    67   am
     5    76    75    1
     6    76    77    2
     7    74    75    1
     8    74    69   am
     9    57    60    1
    10    57    56    1
    11    75    78    1
    12    51    50    2
    13    68    67    1
    14    68    69    1
    15    68    71    1
    16    60    61    1
    17    62    61    1
    18    62    63    1
    19    82    84    1
    20    82    81    2
    21    72    71    1
    22    69    70    2
    23    63    64    2
    24    80    81    1
    25    80    79    1
    26    73    71    1
    27    50    56   am
    28    50    49    1
    29    64    65    1
    30    64    66    1
    31    78    79    1
    32    52    49    1
    33    52    53    1
    34    49    48    1
    35   142   141    1
    36   142   143    2
    37   141   144    1
    38   141   140    1
    39   147   149   ar
    40   147   145   ar
    41   152   153    1
    42    54    53    1
    43   149   150   ar
    44    53    55    1
    45   144   145    1
    46   168   166   am
    47   145   146   ar
    48   157   159    1
    49   157   156    1
    50   164   161    1
    51   164   165    1
    52   153   156    1
    53   153   154    1
    54   160   161    1
    55   166   167    2
    56   166   165    1
    57   150   151    1
    58   150   148   ar
    59   161   162    1
    60   156   158    1
    61   146   148   ar
    62   154   155    2
    63    99    98    2
    64   162   163    2
    65   162   169   am
    66    44    43    2
    67   103   101    1
    68   100   102    1
    69   100   101    1
    70   100    97    1
    71   169   170    1
    72   107   106    2
    73    45    46    1
    74    45    42    1
    75    98    97    1
    76    98   104   am
    77    43    42    1
    78    46    47    1
    79   105   106    1
    80   105   104    1
    81   106   108   am
    82    97    96    1
    83   127   126    2
    84   126   125    1
    85   184   181    1
    86    42    41    1
    87   130   128    1
    88   108   109    1
    89   109   110    1
    90   109   112    1
    91   170   171    1
    92   170   173    1
    93   111   110    2
    94   113   112    1
    95   113   114    1
    96    47    41    1
    97   171   172    2
    98   180   181    1
    99   181   182    1
   100   128   125    1
   101   128   129    1
   102   110   117   am
   103    96    94   am
   104   176   175    1
   105   176   177    2
   106   125   124    1
   107   173   174    1
   108   114   115    1
   109    95    94    2
   110   175   174    1
   111   179   177    1
   112    94    93    1
   113    40    39    1
   114   124   119   am
   115   177   178    1
   116   120   119    2
   117   182   183    2
   118   182   185   am
   119   117   118    1
   120   203   201    1
   121   119   118    1
   122   201   200    1
   123   116   115    1
   124    38    39   ar
   125    38    36   ar
   126    88    87    2
   127    39    37   ar
   128   118   121    1
   129    85    86    1
   130   185   186    1
   131    93    92    1
   132   196   197    1
   133    87    92   am
   134    87    86    1
   135    36    34   ar
   136    86    89    1
   137   197   200    1
   138   197   198    1
   139   200   202    1
   140    37    35   ar
   141    32    31    2
   142   121   122    1
   143   121   123    1
   144   186   187    1
   145   186   189    1
   146    11    10   ar
   147    11     9   ar
   148    31    30    1
   149    10     8   ar
   150    34    35   ar
   151    34    33    1
   152   187   188    2
   153   198   199    2
   154    89    91    1
   155    89    90    1
   156   189   190    1
   157     9     7   ar
   158     8     6   ar
   159    33    30    1
   160    30    29    1
   161     7     6   ar
   162   131   132    1
   163     6     5    1
   164   190   191    1
   165   194   193    1
   166     1     2    1
   167   133   132    1
   168   133   134    2
   169    23    22    2
   170   132   135    1
   171     2     5    1
   172     2     3    1
   173   193   192    2
   174   193   195    1
   175   192   191    1
   176    15    14    2
   177   139   137   ar
   178    22    21    1
   179     3     4    2
   180     3    12   am
   181   137   138   ar
   182   137   136    1
   183   135   136    1
   184    12    13    1
   185    14    20   am
   186    14    13    1
   187    21    20    1
   188    21    24    1
   189    13    16    1
   190    24    25    1
   191    16    17    1
   192    25    26    1
   193    18    17   ar
   194    17    19   ar
   195    26    28   ar
   196    26    27   ar
