@<TRIPOS>MOLECULE
tmp/1w5yA00.pdb
 113 105 0 0 0
SMALL
GASTEIGER

@<TRIPOS>ATOM
      1  N         26.9080   24.0770    6.0800 N.3     8  ARG8       -0.1245
      2  CA        25.6710   24.7280    6.5080 C.3     8  ARG8        0.1563
      3  C         26.0120   26.1340    6.9930 C.2     8  ARG8        0.2260
      4  O         26.9740   26.3240    7.7450 O.2     8  ARG8       -0.2867
      5  CB        25.0020   23.9340    7.6320 C.3     8  ARG8        0.0307
      6  CG        24.3930   22.6140    7.1770 C.3     8  ARG8        0.0489
      7  CD        23.7240   21.8790    8.3360 C.3     8  ARG8        0.2205
      8  NE        22.9910   20.6990    7.8830 N.pl3   8  ARG8       -0.0865
      9  CZ        22.2890   19.9050    8.6860 C.cat   8  ARG8        0.5346
     10  NH1       22.2220   20.1630    9.9870 N.pl3   8  ARG8        0.1354
     11  NH2       21.6360   18.8640    8.1890 N.pl3   8  ARG8        0.1354
     12  N         20.8240   28.6420   11.9280 N.3    23  LEU23      -0.1245
     13  CA        21.0290   28.4940   10.4950 C.3    23  LEU23       0.1561
     14  C         20.3350   29.5840    9.6820 C.2    23  LEU23       0.2260
     15  O         19.1560   29.8600    9.8960 O.2    23  LEU23      -0.2867
     16  CB        20.4920   27.1330   10.0600 C.3    23  LEU23       0.0270
     17  CG        20.6210   26.7330    8.5930 C.3    23  LEU23       0.0019
     18  CD1       22.0700   26.4590    8.2470 C.3    23  LEU23       0.0001
     19  CD2       19.7850   25.4870    8.3550 C.3    23  LEU23       0.0001
     20  N         18.4480   30.3930    6.8820 N.3    25  ASP25      -0.1239
     21  CA        17.6420   29.5410    6.0200 C.3    25  ASP25       0.1674
     22  C         16.7040   30.2750    5.0660 C.2    25  ASP25       0.2266
     23  O         15.6180   30.6810    5.4680 O.2    25  ASP25      -0.2867
     24  CB        16.8310   28.6240    6.9350 C.3    25  ASP25       0.1410
     25  CG        16.1830   27.4760    6.2010 C.2    25  ASP25       0.3668
     26  OD1       16.0850   27.5340    4.9610 O.co2  25  ASP25      -0.2456
     27  OD2       15.7670   26.5190    6.8840 O.co2  25  ASP25      -0.2456
     28  N         14.9340   29.0640    2.8310 N.3    27  GLY27      -0.1210
     29  CA        13.7600   28.2560    2.5330 C.3    27  GLY27       0.1956
     30  C         12.6940   28.3320    3.6150 C.2    27  GLY27       0.2612
     31  O         11.6000   27.7870    3.4610 O.2    27  GLY27      -0.2717
     32  N         13.0170   29.0010    4.7200 N.am   28  ALA28      -0.1965
     33  CA        12.0800   29.1470    5.8340 C.3    28  ALA28       0.1728
     34  C         11.3930   30.5150    5.8000 C.2    28  ALA28       0.2616
     35  O         12.0640   31.5470    5.8030 O.2    28  ALA28      -0.2715
     36  CB        12.8300   28.9750    7.1660 C.3    28  ALA28       0.0334
     37  N         10.0620   30.5250    5.7670 N.am   29  ASP29      -0.1957
     38  CA         9.3270   31.7890    5.7520 C.3    29  ASP29       0.1840
     39  C          9.5100   32.5310    7.0740 C.2    29  ASP29       0.2622
     40  O          9.6360   33.7560    7.0980 O.2    29  ASP29      -0.2715
     41  CB         7.8210   31.5630    5.5480 C.3    29  ASP29       0.1450
     42  CG         7.4910   30.9530    4.2030 C.2    29  ASP29       0.3671
     43  OD1        8.2030   31.2290    3.2170 O.co2  29  ASP29      -0.2456
     44  OD2        6.4980   30.2070    4.1340 O.co2  29  ASP29      -0.2456
     45  N          9.5220   31.7760    8.1700 N.am   30  ASP30      -0.1971
     46  CA         9.6550   32.3550    9.5010 C.3    30  ASP30       0.1709
     47  C         10.8520   31.8360   10.2860 C.2    30  ASP30       0.2293
     48  O         11.5750   30.9450    9.8450 O.2    30  ASP30      -0.2864
     49  CB         8.3780   32.1060   10.3070 C.3    30  ASP30       0.1436
     50  CG         7.1850   32.8620    9.7540 C.2    30  ASP30       0.3671
     51  OD1        7.1970   34.1120    9.8100 O.co2  30  ASP30      -0.2456
     52  OD2        6.2460   32.2080    9.2590 O.co2  30  ASP30      -0.2456
     53  N         12.2790   30.0420   13.6940 N.3    32  VAL32      -0.1245
     54  CA        11.8590   29.1250   14.7440 C.3    32  VAL32       0.1561
     55  C         13.0520   28.6460   15.5630 C.2    32  VAL32       0.2260
     56  O         14.0700   28.2090   15.0130 O.2    32  VAL32      -0.2867
     57  CB        11.1010   27.9090   14.1530 C.3    32  VAL32       0.0252
     58  CG1       11.9710   27.1800   13.1530 C.3    32  VAL32       0.0019
     59  CG2       10.6630   26.9710   15.2760 C.3    32  VAL32       0.0019
     60  N          3.2830   24.9970   11.8210 N.3    47  ILE47      -0.1231
     61  CA         4.1200   25.2510   10.6500 C.3    47  ILE47       0.1692
     62  C          4.4910   23.9330   10.0000 C.2    47  ILE47       0.2593
     63  O          4.6950   22.9310   10.6820 O.2    47  ILE47      -0.2718
     64  CB         5.4110   26.0240   11.0080 C.3    47  ILE47       0.0266
     65  CG1        6.2210   25.2590   12.0550 C.3    47  ILE47       0.0019
     66  CG2        5.0540   27.4200   11.5090 C.3    47  ILE47       0.0020
     67  CD1        7.5410   25.9360   12.4230 C.3    47  ILE47       0.0001
     68  N          4.5730   23.9330    8.6750 N.am   48  GLY48      -0.1942
     69  CA         4.8980   22.7080    7.9800 C.3    48  GLY48       0.2014
     70  C          6.1310   22.7880    7.1110 C.2    48  GLY48       0.2639
     71  O          6.4360   23.8240    6.5180 O.2    48  GLY48      -0.2714
     72  N          6.8470   21.6750    7.0500 N.am   49  GLY49      -0.1939
     73  CA         8.0420   21.5970    6.2360 C.3    49  GLY49       0.2014
     74  C          8.1590   20.1730    5.7440 C.2    49  GLY49       0.2638
     75  O          7.1480   19.4980    5.5470 O.2    49  GLY49      -0.2714
     76  N          9.3880   19.7120    5.5380 N.am   50  ILE50      -0.1977
     77  CA         9.6040   18.3460    5.0980 C.3    50  ILE50       0.1596
     78  C          9.2410   17.4530    6.2810 C.2    50  ILE50       0.2287
     79  O          9.7200   17.6700    7.3890 O.2    50  ILE50      -0.2864
     80  CB        11.0880   18.0910    4.7370 C.3    50  ILE50       0.0276
     81  CG1       11.4360   18.7660    3.4090 C.3    50  ILE50       0.0022
     82  CG2       11.3610   16.6020    4.6790 C.3    50  ILE50       0.0022
     83  CD1       11.5950   20.2500    3.5170 C.3    50  ILE50       0.0001
     84  N          9.1810   32.1340   16.4890 N.3    76  LEU76      -0.1245
     85  CA         8.4050   30.9580   16.8600 C.3    76  LEU76       0.1561
     86  C          9.2920   30.0680   17.7210 C.2    76  LEU76       0.2260
     87  O         10.5060   30.0000   17.5090 O.2    76  LEU76      -0.2867
     88  CB         7.9600   30.1900   15.6090 C.3    76  LEU76       0.0270
     89  CG         7.2430   31.0170   14.5300 C.3    76  LEU76       0.0019
     90  CD1        6.9210   30.1220   13.3350 C.3    76  LEU76       0.0001
     91  CD2        5.9720   31.6300   15.1030 C.3    76  LEU76       0.0001
     92  N         14.3460   20.7370   15.1770 N.3    81  PRO81      -0.2102
     93  CA        15.6280   20.0490   15.3560 C.3    81  PRO81       0.1504
     94  C         16.8560   20.9610   15.3440 C.2    81  PRO81       0.2575
     95  O         17.9240   20.5760   15.8140 O.2    81  PRO81      -0.2718
     96  CB        15.6330   19.0380   14.2100 C.3    81  PRO81       0.0282
     97  CG        14.8810   19.7510   13.1400 C.3    81  PRO81       0.0208
     98  CD        13.7200   20.3590   13.8980 C.3    81  PRO81       0.0893
     99  N         16.7000   22.1670   14.8100 N.am   82  VAL82      -0.1980
    100  CA        17.7960   23.1260   14.7400 C.3    82  VAL82       0.1595
    101  C         17.2250   24.5440   14.7650 C.2    82  VAL82       0.2287
    102  O         16.0900   24.7620   14.3410 O.2    82  VAL82      -0.2864
    103  CB        18.6130   22.9380   13.4370 C.3    82  VAL82       0.0276
    104  CG1       17.7290   23.1840   12.2370 C.3    82  VAL82       0.0022
    105  CG2       19.8000   23.8830   13.4180 C.3    82  VAL82       0.0022
    106  N         16.4580   28.0370   13.4860 N.3    84  ILE84      -0.1245
    107  CA        16.3060   28.5680   12.1340 C.3    84  ILE84       0.1561
    108  C         16.0180   30.0650   12.0380 C.2    84  ILE84       0.2260
    109  O         15.0720   30.5650   12.6470 O.2    84  ILE84      -0.2867
    110  CB        15.1530   27.8280   11.4170 C.3    84  ILE84       0.0252
    111  CG1       15.4910   26.3440   11.2920 C.3    84  ILE84       0.0019
    112  CG2       14.8720   28.4590   10.0530 C.3    84  ILE84       0.0019
    113  CD1       14.2830   25.4900   10.9830 C.3    84  ILE84       0.0001
@<TRIPOS>BOND
     1    29    28    1
     2    29    30    1
     3    43    42   ar
     4    81    83    1
     5    81    80    1
     6    31    30    2
     7    30    32   am
     8    44    42   ar
     9    42    41    1
    10    82    80    1
    11    32    33    1
    12    80    77    1
    13    26    25   ar
    14    22    23    2
    15    22    21    1
    16    77    76    1
    17    77    78    1
    18    76    74   am
    19    75    74    2
    20    41    38    1
    21    74    73    1
    22    38    37    1
    23    38    39    1
    24    37    34   am
    25    34    35    2
    26    34    33    1
    27    33    36    1
    28    21    20    1
    29    21    24    1
    30     1     2    1
    31    25    27   ar
    32    25    24    1
    33    73    72    1
    34    78    79    2
    35     2     3    1
    36     2     5    1
    37    71    70    2
    38     3     4    2
    39    72    70   am
    40    39    40    2
    41    39    45   am
    42    70    69    1
    43     6     5    1
    44     6     7    1
    45     8     7    1
    46     8     9    2
    47    69    68    1
    48    45    46    1
    49    11     9    1
    50    18    17    1
    51    19    17    1
    52    17    16    1
    53    68    62   am
    54     9    10    1
    55    52    50   ar
    56    46    47    1
    57    46    49    1
    58    14    15    2
    59    14    13    1
    60    50    51   ar
    61    50    49    1
    62    48    47    2
    63    62    61    1
    64    62    63    2
    65   112   110    1
    66    16    13    1
    67    13    12    1
    68    61    64    1
    69    61    60    1
    70   113   111    1
    71    64    66    1
    72    64    65    1
    73   111   110    1
    74   110   107    1
    75   108   107    1
    76   108   109    2
    77    65    67    1
    78   107   106    1
    79   104   103    1
    80    97    98    1
    81    97    96    1
    82    58    57    1
    83    90    89    1
    84   105   103    1
    85   103   100    1
    86    53    54    1
    87    98    92    1
    88    57    54    1
    89    57    59    1
    90    96    93    1
    91   102   101    2
    92    89    91    1
    93    89    88    1
    94   100   101    1
    95   100    99    1
    96    54    55    1
    97    99    94   am
    98    56    55    2
    99    92    93    1
   100    94    93    1
   101    94    95    2
   102    88    85    1
   103    84    85    1
   104    85    86    1
   105    87    86    2
