@<TRIPOS>MOLECULE
tmp/1w62A00.pdb
 105 98 0 0 0
SMALL
GASTEIGER

@<TRIPOS>ATOM
      1  N         32.1350   -7.2850   10.5640 N.3    24  GLU24      -0.1245
      2  CA        30.8970   -7.8760   10.9860 C.3    24  GLU24       0.1567
      3  C         30.9780   -8.3150   12.4510 C.2    24  GLU24       0.2260
      4  O         31.8330   -9.0970   12.8330 O.2    24  GLU24      -0.2867
      5  CB        30.5780   -9.0510   10.0880 C.3    24  GLU24       0.0388
      6  CG        29.2270   -9.7470   10.3560 C.3    24  GLU24       0.1160
      7  CD        28.0090   -8.8790   10.0990 C.2    24  GLU24       0.3649
      8  OE1       28.1590   -7.7110    9.6900 O.co2  24  GLU24      -0.2457
      9  OE2       26.8820   -9.3890   10.3060 O.co2  24  GLU24      -0.2457
     10  N         25.1940   -8.9190   15.4010 N.3    70  PHE70      -0.1241
     11  CA        25.1840  -10.3680   15.2200 C.3    70  PHE70       0.1605
     12  C         25.8890  -10.9460   16.4130 C.2    70  PHE70       0.2264
     13  O         26.7340  -10.2680   17.0590 O.2    70  PHE70      -0.2867
     14  CB        25.9260  -10.7980   13.9120 C.3    70  PHE70       0.0534
     15  CG        25.6700  -12.2560   13.5100 C.ar   70  PHE70      -0.0203
     16  CD1       24.6780  -12.5750   12.6010 C.ar   70  PHE70      -0.0042
     17  CD2       26.3500  -13.2870   14.1170 C.ar   70  PHE70      -0.0042
     18  CE1       24.3860  -13.9040   12.2940 C.ar   70  PHE70      -0.0003
     19  CE2       26.0380  -14.6020   13.8410 C.ar   70  PHE70      -0.0003
     20  CZ        25.0900  -14.9170   12.9240 C.ar   70  PHE70      -0.0000
     21  N         20.2850  -18.2550   12.9470 N.3    95  LEU95      -0.1245
     22  CA        20.8520  -19.0700   11.8360 C.3    95  LEU95       0.1561
     23  C         21.3990  -20.4100   12.3310 C.2    95  LEU95       0.2260
     24  O         21.9730  -20.4760   13.4180 O.2    95  LEU95      -0.2867
     25  CB        21.9320  -18.2890   11.0990 C.3    95  LEU95       0.0270
     26  CG        21.4770  -17.0030   10.4230 C.3    95  LEU95       0.0019
     27  CD1       22.6810  -16.3260    9.7620 C.3    95  LEU95       0.0001
     28  CD2       20.3530  -17.2440    9.4030 C.3    95  LEU95       0.0001
     29  N         26.9430  -20.0180   10.9650 N.3    98  CYS98      -0.1221
     30  CA        27.4940  -18.7420   10.5810 C.3    98  CYS98       0.1808
     31  C         29.0240  -18.7880   10.5470 C.2    98  CYS98       0.2602
     32  O         29.6650  -19.0010   11.5660 O.2    98  CYS98      -0.2717
     33  CB        27.0450  -17.6640   11.5100 C.3    98  CYS98       0.0970
     34  SG        27.8990  -16.1010   11.2550 S.3    98  CYS98      -0.0800
     35  N         29.5620  -18.5890    9.3470 N.am   99  GLY99      -0.1942
     36  CA        30.9870  -18.5660    9.0620 C.3    99  GLY99       0.2014
     37  C         31.7770  -17.4850    9.7390 C.2    99  GLY99       0.2638
     38  O         32.7780  -17.7790   10.3540 O.2    99  GLY99      -0.2714
     39  N         31.3250  -16.2460    9.6580 N.am  100  HIS100     -0.1973
     40  CA        32.0850  -15.1480   10.2980 C.3   100  HIS100      0.1656
     41  C         32.1520  -15.2850   11.8060 C.2   100  HIS100      0.2291
     42  O         33.1580  -15.0050   12.3900 O.2   100  HIS100     -0.2864
     43  CB        31.5630  -13.7680    9.9210 C.3   100  HIS100      0.0771
     44  CG        30.4750  -13.2780   10.8230 C.ar  100  HIS100      0.0820
     45  ND1       29.1490  -13.3310   10.4730 N.ar  100  HIS100     -0.2267
     46  CD2       30.5160  -12.7490   12.0650 C.ar  100  HIS100      0.1154
     47  CE1       28.4160  -12.8730   11.4640 C.ar  100  HIS100      0.1986
     48  NE2       29.2200  -12.5130   12.4430 N.ar  100  HIS100     -0.2212
     49  N         23.2200  -22.5440    6.0630 N.3   186  ASN186     -0.1240
     50  CA        21.8540  -22.0150    5.9570 C.3   186  ASN186      0.1653
     51  C         21.4130  -22.2390    4.5210 C.2   186  ASN186      0.2266
     52  O         22.2720  -22.4610    3.6610 O.2   186  ASN186     -0.2867
     53  CB        21.8030  -20.5190    6.2160 C.3   186  ASN186      0.1155
     54  CG        22.4960  -20.1340    7.4790 C.2   186  ASN186      0.2627
     55  OD1       22.0880  -20.5400    8.5660 O.2   186  ASN186     -0.2716
     56  ND2       23.5620  -19.3350    7.3560 N.am  186  ASN186     -0.0877
     57  N         18.4600  -16.5970    4.1570 N.3   238  CYS238     -0.1235
     58  CA        19.4030  -15.5730    3.6520 C.3   238  CYS238      0.1677
     59  C         19.3820  -15.3960    2.1300 C.2   238  CYS238      0.2270
     60  O         19.2350  -16.3630    1.3790 O.2   238  CYS238     -0.2867
     61  CB        20.8620  -15.9230    4.0040 C.3   238  CYS238      0.0956
     62  SG        21.1640  -16.6530    5.6360 S.3   238  CYS238     -0.0801
     63  N         24.9910  -10.1330    1.7780 N.3   256  VAL256     -0.1245
     64  CA        23.9750  -11.0430    2.2530 C.3   256  VAL256      0.1561
     65  C         22.9400  -10.3180    3.1300 C.2   256  VAL256      0.2260
     66  O         23.3080   -9.5810    4.0530 O.2   256  VAL256     -0.2867
     67  CB        24.5870  -12.1980    2.9950 C.3   256  VAL256      0.0252
     68  CG1       23.4890  -12.9470    3.8500 C.3   256  VAL256      0.0019
     69  CG2       25.2140  -13.1310    2.0000 C.3   256  VAL256      0.0019
     70  N         19.7000  -10.8860    5.6160 N.3   258  PHE258     -0.1241
     71  CA        19.2400  -11.9240    6.5350 C.3   258  PHE258      0.1605
     72  C         18.6990  -11.2400    7.7700 C.2   258  PHE258      0.2264
     73  O         18.6180   -9.9900    7.8020 O.2   258  PHE258     -0.2867
     74  CB        20.3840  -12.9090    6.8820 C.3   258  PHE258      0.0534
     75  CG        21.4540  -12.3160    7.7820 C.ar  258  PHE258     -0.0203
     76  CD1       21.4450  -12.5670    9.1580 C.ar  258  PHE258     -0.0042
     77  CD2       22.4490  -11.4810    7.2610 C.ar  258  PHE258     -0.0042
     78  CE1       22.4240  -11.9900    9.9850 C.ar  258  PHE258     -0.0003
     79  CE2       23.3900  -10.8910    8.0900 C.ar  258  PHE258     -0.0003
     80  CZ        23.3950  -11.1540    9.4350 C.ar  258  PHE258     -0.0000
     81  N         25.2480   -8.3050    5.8100 N.3   264  ASP264     -0.1239
     82  CA        26.5350   -8.8080    6.3040 C.3   264  ASP264      0.1674
     83  C         27.5750   -7.8100    5.8360 C.2   264  ASP264      0.2266
     84  O         27.5870   -7.4540    4.6830 O.2   264  ASP264     -0.2867
     85  CB        26.8520  -10.1970    5.7190 C.3   264  ASP264      0.1410
     86  CG        27.9790  -10.9360    6.4810 C.2   264  ASP264      0.3668
     87  OD1       28.6310  -10.3250    7.3610 O.co2 264  ASP264     -0.2456
     88  OD2       28.2880  -12.1350    6.2710 O.co2 264  ASP264     -0.2456
     89  N         30.5780  -13.3280    4.2640 N.3   268  CYS268     -0.1221
     90  CA        29.6250  -14.3250    4.6620 C.3   268  CYS268      0.1808
     91  C         30.1260  -15.7520    4.3600 C.2   268  CYS268      0.2602
     92  O         30.1620  -16.1720    3.2000 O.2   268  CYS268     -0.2717
     93  CB        28.2600  -14.0830    3.9840 C.3   268  CYS268      0.0970
     94  SG        27.0720  -15.2770    4.5860 S.3   268  CYS268     -0.0800
     95  N         30.4840  -16.4750    5.4170 N.am  269  GLY269     -0.1942
     96  CA        31.1360  -17.7540    5.2890 C.3   269  GLY269      0.2014
     97  C         30.2390  -18.8250    4.7110 C.2   269  GLY269      0.2639
     98  O         30.6830  -19.5840    3.8220 O.2   269  GLY269     -0.2714
     99  N         28.9870  -18.8960    5.2100 N.am  270  THR270     -0.1950
    100  CA        28.0290  -19.8810    4.7370 C.3   270  THR270      0.1897
    101  C         27.6250  -19.5660    3.3340 C.2   270  THR270      0.2313
    102  O         27.4470  -20.4740    2.5580 O.2   270  THR270     -0.2863
    103  CB        26.7370  -19.9670    5.6130 C.3   270  THR270      0.1794
    104  OG1       26.2310  -18.6610    5.8410 O.3   270  THR270     -0.2208
    105  CG2       27.0200  -20.5120    7.0000 C.3   270  THR270      0.0378
@<TRIPOS>BOND
     1    60    59    2
     2    63    64    1
     3    69    67    1
     4    59    58    1
     5    64    67    1
     6    64    65    1
     7   102   101    2
     8    67    68    1
     9    65    66    2
    10    92    91    2
    11   101   100    1
    12    58    61    1
    13    58    57    1
    14    52    51    2
    15    98    97    2
    16    93    94    1
    17    93    90    1
    18    61    62    1
    19    89    90    1
    20    91    90    1
    21    91    95   am
    22    51    50    1
    23    84    83    2
    24    97    99   am
    25    97    96    1
    26   100    99    1
    27   100   103    1
    28    96    95    1
    29   103   104    1
    30   103   105    1
    31    70    71    1
    32    85    82    1
    33    85    86    1
    34    81    82    1
    35    83    82    1
    36    50    49    1
    37    50    53    1
    38    53    54    1
    39    88    86   ar
    40    86    87   ar
    41    71    74    1
    42    71    72    1
    43    74    75    1
    44    77    75   ar
    45    77    79   ar
    46    56    54   am
    47    54    55    2
    48    72    73    2
    49    75    76   ar
    50    79    80   ar
    51    36    35    1
    52    36    37    1
    53    76    78   ar
    54    35    31   am
    55    28    26    1
    56    80    78   ar
    57    39    37   am
    58    39    40    1
    59     8     7   ar
    60    37    38    2
    61    27    26    1
    62    43    40    1
    63    43    44    1
    64     5     6    1
    65     5     2    1
    66     7     9   ar
    67     7     6    1
    68    40    41    1
    69    26    25    1
    70    45    44   ar
    71    45    47   ar
    72    31    30    1
    73    31    32    2
    74     1     2    1
    75    30    29    1
    76    30    33    1
    77    44    46   ar
    78     2     3    1
    79    25    22    1
    80    34    33    1
    81    47    48   ar
    82    41    42    2
    83    22    23    1
    84    22    21    1
    85    46    48   ar
    86    18    16   ar
    87    18    20   ar
    88    23    24    2
    89     3     4    2
    90    16    15   ar
    91    20    19   ar
    92    15    14    1
    93    15    17   ar
    94    19    17   ar
    95    14    11    1
    96    11    10    1
    97    11    12    1
    98    12    13    2
