@<TRIPOS>MOLECULE
tmp/1w66A00.pdb
 158 151 0 0 0
SMALL
GASTEIGER

@<TRIPOS>ATOM
      1  N          6.0980   14.3900   -3.3630 N.3    60  ARG60      -0.1245
      2  CA         5.7320   15.7260   -2.9470 C.3    60  ARG60       0.1563
      3  C          6.9310   16.6750   -2.7030 C.2    60  ARG60       0.2260
      4  O          6.7270   17.8600   -2.5240 O.2    60  ARG60      -0.2867
      5  CB         4.8580   15.6880   -1.6870 C.3    60  ARG60       0.0307
      6  CG         3.4890   15.1140   -1.9870 C.3    60  ARG60       0.0489
      7  CD         2.7080   14.8320   -0.6650 C.3    60  ARG60       0.2205
      8  NE         2.6260   16.1030    0.0400 N.pl3  60  ARG60      -0.0865
      9  CZ         3.2070   16.4130    1.2040 C.cat  60  ARG60       0.5346
     10  NH1        3.0580   17.6460    1.6430 N.pl3  60  ARG60       0.1354
     11  NH2        3.8390   15.5510    1.9820 N.pl3  60  ARG60       0.1354
     12  N          7.3480    6.2800   -1.2150 N.3    78  ARG78      -0.1245
     13  CA         6.7320    6.4610    0.0750 C.3    78  ARG78       0.1563
     14  C          6.0800    7.8440    0.1590 C.2    78  ARG78       0.2260
     15  O          6.4370    8.7900   -0.5680 O.2    78  ARG78      -0.2867
     16  CB         7.7650    6.3300    1.2300 C.3    78  ARG78       0.0307
     17  CG         8.9080    7.2770    1.0080 C.3    78  ARG78       0.0489
     18  CD         9.5310    7.6630    2.3460 C.3    78  ARG78       0.2205
     19  NE        10.6890    8.5080    2.1600 N.pl3  78  ARG78      -0.0865
     20  CZ        10.6630    9.8080    1.8570 C.cat  78  ARG78       0.5346
     21  NH1        9.5050   10.4710    1.8070 N.pl3  78  ARG78       0.1354
     22  NH2       11.7900   10.4540    1.6600 N.pl3  78  ARG78       0.1354
     23  N          5.4860   11.4280    2.0320 N.3    80  GLY80      -0.1210
     24  CA         6.3700   12.4290    2.5930 C.3    80  GLY80       0.1956
     25  C          7.2890   13.0830    1.5650 C.2    80  GLY80       0.2612
     26  O          7.3220   12.7240    0.3990 O.2    80  GLY80      -0.2717
     27  N          8.0610   14.0400    2.0020 N.am   81  LYS81      -0.1965
     28  CA         8.9730   14.8470    1.2140 C.3    81  LYS81       0.1728
     29  C         10.3850   14.2710    1.3250 C.2    81  LYS81       0.2616
     30  O         10.5480   13.0740    1.0800 O.2    81  LYS81      -0.2715
     31  CB         8.7810   16.2990    1.5410 C.3    81  LYS81       0.0311
     32  CG         7.4420   16.8750    1.1520 C.3    81  LYS81       0.0038
     33  CD         7.2670   18.3320    1.5530 C.3    81  LYS81       0.0206
     34  CE         6.4820   19.1340    0.5000 C.3    81  LYS81       0.1093
     35  NZ         6.5270   20.5630    0.8660 N.3    81  LYS81      -0.1314
     36  N         11.3770   15.0650    1.6670 N.am   82  ILE82      -0.1963
     37  CA        12.7570   14.6150    1.6610 C.3    82  ILE82       0.1727
     38  C         13.2210   14.2620    3.0650 C.2    82  ILE82       0.2616
     39  O         12.8570   14.9070    4.0630 O.2    82  ILE82      -0.2715
     40  CB        13.6720   15.6420    0.9980 C.3    82  ILE82       0.0290
     41  CG1       15.0470   15.0960    0.7170 C.3    82  ILE82       0.0022
     42  CG2       13.8300   16.8850    1.8130 C.3    82  ILE82       0.0023
     43  CD1       15.8460   15.9150   -0.2650 C.3    82  ILE82       0.0001
     44  N         14.0550   13.2460    3.1520 N.am   83  THR83      -0.1951
     45  CA        14.7130   12.8730    4.3910 C.3    83  THR83       0.1897
     46  C         16.0980   12.3100    4.0800 C.2    83  THR83       0.2313
     47  O         16.5130   12.2090    2.9220 O.2    83  THR83      -0.2863
     48  CB        13.8530   11.8640    5.1890 C.3    83  THR83       0.1794
     49  OG1       14.3060   11.9240    6.5690 O.3    83  THR83      -0.2208
     50  CG2       13.9600   10.4410    4.6940 C.3    83  THR83       0.0378
     51  N         18.8370    9.0960    5.4110 N.3    85  HIS85      -0.1241
     52  CA        19.1500    7.8880    6.1510 C.3    85  HIS85       0.1621
     53  C         20.6550    7.6990    6.1480 C.2    85  HIS85       0.2264
     54  O         21.3140    8.0920    5.1890 O.2    85  HIS85      -0.2867
     55  CB        18.4870    6.6320    5.5570 C.3    85  HIS85       0.0745
     56  CG        17.0180    6.7900    5.3150 C.ar   85  HIS85       0.0817
     57  ND1       16.1320    7.0230    6.3310 N.ar   85  HIS85      -0.2268
     58  CD2       16.2730    6.7260    4.1870 C.ar   85  HIS85       0.1154
     59  CE1       14.9190    7.0820    5.7970 C.ar   85  HIS85       0.1986
     60  NE2       14.9400    6.9140    4.5060 N.ar   85  HIS85      -0.2212
     61  N         16.3230    2.0290   10.6280 N.3    91  VAL91      -0.1245
     62  CA        15.2230    2.0930    9.6530 C.3    91  VAL91       0.1561
     63  C         14.4030    0.8360    9.8200 C.2    91  VAL91       0.2260
     64  O         14.9410   -0.2870    9.8470 O.2    91  VAL91      -0.2867
     65  CB        15.7890    2.2340    8.2410 C.3    91  VAL91       0.0252
     66  CG1       14.6950    2.2020    7.1960 C.3    91  VAL91       0.0019
     67  CG2       16.5390    3.5330    8.1170 C.3    91  VAL91       0.0019
     68  N         11.0430   -1.2330    8.2140 N.3    93  TYR93      -0.1241
     69  CA        10.1190   -1.4200    7.1280 C.3    93  TYR93       0.1605
     70  C          9.1530   -2.5410    7.5020 C.2    93  TYR93       0.2264
     71  O          9.4190   -3.7200    7.2990 O.2    93  TYR93      -0.2867
     72  CB        10.8530   -1.7570    5.8540 C.3    93  TYR93       0.0534
     73  CG        11.7490   -0.6810    5.2980 C.ar   93  TYR93      -0.0201
     74  CD1       11.3190    0.6390    5.2360 C.ar   93  TYR93      -0.0009
     75  CD2       12.9890   -0.9460    4.8130 C.ar   93  TYR93      -0.0009
     76  CE1       12.1230    1.6470    4.7210 C.ar   93  TYR93       0.0417
     77  CE2       13.8030    0.0530    4.2350 C.ar   93  TYR93       0.0417
     78  CZ        13.3560    1.3410    4.1940 C.ar   93  TYR93       0.1957
     79  OH        14.0560    2.3590    3.6170 O.3    93  TYR93      -0.2866
     80  N          2.2830   16.6990   11.5860 N.3   132  ARG132     -0.1231
     81  CA         3.7130   16.5140   11.2780 C.3   132  ARG132      0.1694
     82  C          4.0810   15.1190   11.7640 C.2   132  ARG132      0.2592
     83  O          4.5450   14.9310   12.8820 O.2   132  ARG132     -0.2718
     84  CB         4.5300   17.6020   11.9540 C.3   132  ARG132      0.0321
     85  CG         4.2270   18.9810   11.4480 C.3   132  ARG132      0.0489
     86  CD         5.1410   20.0210   12.1330 C.3   132  ARG132      0.2205
     87  NE         4.9390   21.3390   11.5620 N.pl3 132  ARG132     -0.0865
     88  CZ         5.6950   22.3810   11.7130 C.cat 132  ARG132      0.5346
     89  NH1        6.7750   22.2890   12.4860 N.pl3 132  ARG132      0.1354
     90  NH2        5.4320   23.5340   11.1300 N.pl3 132  ARG132      0.1354
     91  N          3.8650   14.1070   10.9450 N.am  133  SER133     -0.1952
     92  CA         4.0060   12.7070   11.3700 C.3   133  SER133      0.1924
     93  C          5.4200   12.4400   11.8850 C.2   133  SER133      0.2314
     94  O          6.3500   13.0440   11.4070 O.2   133  SER133     -0.2863
     95  CB         3.7290   11.6880   10.2750 C.3   133  SER133      0.2116
     96  OG         4.6840   11.7820    9.2530 O.3   133  SER133     -0.2180
     97  N         12.6340   16.5970   16.1990 N.3   144  LYS144     -0.1245
     98  CA        12.1160   15.3460   15.6390 C.3   144  LYS144      0.1561
     99  C         13.1390   14.2330   15.7660 C.2   144  LYS144      0.2260
    100  O         14.2600   14.3650   15.2230 O.2   144  LYS144     -0.2867
    101  CB        11.7490   15.5800   14.1740 C.3   144  LYS144      0.0271
    102  CG        11.0050   14.3630   13.5970 C.3   144  LYS144      0.0035
    103  CD        10.5280   14.7100   12.1540 C.3   144  LYS144      0.0206
    104  CE         9.7970   13.6070   11.5390 C.3   144  LYS144      0.1093
    105  NZ         9.4790   14.0760   10.1040 N.3   144  LYS144     -0.1314
    106  N         11.1990    9.7750   11.9730 N.3   147  ALA147     -0.1231
    107  CA        10.4040   10.1010   10.8140 C.3   147  ALA147      0.1694
    108  C          9.6360    8.8950   10.3420 C.2   147  ALA147      0.2592
    109  O         10.0740    7.7480   10.5140 O.2   147  ALA147     -0.2718
    110  CB        11.3140   10.5800    9.6960 C.3   147  ALA147      0.0304
    111  N          8.4980    9.1770    9.7200 N.am  148  ILE148     -0.1966
    112  CA         7.6170    8.1530    9.1700 C.3   148  ILE148      0.1727
    113  C          7.2670    8.5290    7.7330 C.2   148  ILE148      0.2616
    114  O          6.9420    9.6770    7.4280 O.2   148  ILE148     -0.2715
    115  CB         6.3500    7.9850    9.9740 C.3   148  ILE148      0.0290
    116  CG1        6.7690    7.5450   11.4090 C.3   148  ILE148      0.0022
    117  CG2        5.4340    6.9560    9.3290 C.3   148  ILE148      0.0023
    118  CD1        5.7810    7.5310   12.4540 C.3   148  ILE148      0.0001
    119  N          7.3140    7.5420    6.8640 N.am  149  GLY149     -0.1955
    120  CA         6.8670    7.7000    5.4710 C.3   149  GLY149      0.1869
    121  C          6.5240    6.3400    4.9570 C.2   149  GLY149      0.2309
    122  O          7.3910    5.4840    4.8620 O.2   149  GLY149     -0.2863
    123  N          7.5460    0.7410    3.0010 N.3   159  HIS159     -0.1226
    124  CA         8.3180    1.7780    3.6560 C.3   159  HIS159      0.1752
    125  C          8.0770    1.7170    5.1430 C.2   159  HIS159      0.2597
    126  O          7.9350    0.5990    5.6830 O.2   159  HIS159     -0.2718
    127  CB         8.1840    3.1170    2.9430 C.3   159  HIS159      0.0759
    128  CG         8.6740    3.0090    1.5490 C.ar  159  HIS159      0.0818
    129  ND1       10.0110    2.9440    1.2100 N.ar  159  HIS159     -0.2268
    130  CD2        7.9540    2.9330    0.4020 C.ar  159  HIS159      0.1154
    131  CE1       10.0970    2.8560   -0.1170 C.ar  159  HIS159      0.1986
    132  NE2        8.8580    2.8280   -0.6340 N.ar  159  HIS159     -0.2212
    133  N          8.1430    2.8250    5.8920 N.am  160  GLY160     -0.1942
    134  CA         8.1370    2.6730    7.3280 C.3   160  GLY160      0.2014
    135  C          8.6170    3.8650    8.0840 C.2   160  GLY160      0.2639
    136  O          8.0590    4.9630    7.9490 O.2   160  GLY160     -0.2714
    137  N          9.6080    3.6560    8.9330 N.am  161  PHE161     -0.1959
    138  CA        10.0470    4.6790    9.8500 C.3   161  PHE161      0.1771
    139  C         11.5940    4.6880    9.9330 C.2   161  PHE161      0.2619
    140  O         12.2610    3.7240    9.5620 O.2   161  PHE161     -0.2715
    141  CB         9.4300    4.4650   11.2420 C.3   161  PHE161      0.0574
    142  CG         9.8010    3.1650   11.8760 C.ar  161  PHE161     -0.0200
    143  CD1       11.0090    3.0040   12.5720 C.ar  161  PHE161     -0.0042
    144  CD2        8.9380    2.0790   11.8370 C.ar  161  PHE161     -0.0042
    145  CE1       11.3160    1.7880   13.1640 C.ar  161  PHE161     -0.0003
    146  CE2        9.2650    0.8920   12.4390 C.ar  161  PHE161     -0.0003
    147  CZ        10.4390    0.7520   13.1250 C.ar  161  PHE161     -0.0000
    148  N         12.0980    5.7430   10.5420 N.am  162  ALA162     -0.1977
    149  CA        13.5200    5.8790   10.7830 C.3   162  ALA162      0.1597
    150  C         13.7220    6.5570   12.1000 C.2   162  ALA162      0.2287
    151  O         13.2430    7.6740   12.3080 O.2   162  ALA162     -0.2864
    152  CB        14.1820    6.6760    9.6500 C.3   162  ALA162      0.0319
    153  N         11.2850   16.8330    5.4980 N.3   178  CYS178     -0.1235
    154  CA         9.8450   16.6000    5.5340 C.3   178  CYS178      0.1677
    155  C          9.0480   17.8930    5.4350 C.2   178  CYS178      0.2270
    156  O          7.9860   18.0190    6.0100 O.2   178  CYS178     -0.2867
    157  CB         9.4730   15.8090    6.7650 C.3   178  CYS178      0.0956
    158  SG        10.1680   14.1630    6.7600 S.3   178  CYS178     -0.0801
@<TRIPOS>BOND
     1     1     2    1
     2     2     3    1
     3     2     5    1
     4     3     4    2
     5     6     5    1
     6     6     7    1
     7    12    13    1
     8     7     8    1
     9   132   131   ar
    10   132   130   ar
    11    15    14    2
    12    43    41    1
    13   131   129   ar
    14     8     9    2
    15    13    14    1
    16    13    16    1
    17    26    25    2
    18   130   128   ar
    19    34    35    1
    20    34    33    1
    21    41    40    1
    22    40    37    1
    23    40    42    1
    24    17    16    1
    25    17    18    1
    26    30    29    2
    27    32    31    1
    28    32    33    1
    29     9    10    1
    30     9    11    1
    31   129   128   ar
    32    28    29    1
    33    28    31    1
    34    28    27    1
    35    29    36   am
    36   128   127    1
    37    25    27   am
    38    25    24    1
    39    22    20    1
    40    37    36    1
    41    37    38    1
    42    21    20    1
    43    20    19    2
    44    23    24    1
    45    19    18    1
    46    47    46    2
    47   127   124    1
    48   123   124    1
    49    38    44   am
    50    38    39    2
    51    44    45    1
    52    79    78    1
    53   124   125    1
    54    46    45    1
    55    58    60   ar
    56    58    56   ar
    57    78    77   ar
    58    78    76   ar
    59    77    75   ar
    60    45    48    1
    61    60    59   ar
    62    50    48    1
    63    76    74   ar
    64    75    73   ar
    65   122   121    2
    66   121   120    1
    67   125   126    2
    68   125   133   am
    69    54    53    2
    70    48    49    1
    71    74    73   ar
    72    73    72    1
    73    56    55    1
    74    56    57   ar
    75    51    52    1
    76   155   154    1
    77   155   156    2
    78   120   119    1
    79   153   154    1
    80   154   157    1
    81    55    52    1
    82    59    57   ar
    83    72    69    1
    84   133   134    1
    85    53    52    1
    86   158   157    1
    87   119   113   am
    88    69    70    1
    89    69    68    1
    90    66    65    1
    91    71    70    2
    92   134   135    1
    93   114   113    2
    94   113   112    1
    95   136   135    2
    96   135   137   am
    97    67    65    1
    98    65    62    1
    99   137   138    1
   100   112   111    1
   101   112   115    1
   102    96    95    1
   103   117   115    1
   104   140   139    2
   105   152   149    1
   106    62    63    1
   107    62    61    1
   108   110   107    1
   109   111   108   am
   110    63    64    2
   111   138   139    1
   112   138   141    1
   113   139   148   am
   114   115   116    1
   115   105   104    1
   116    95    92    1
   117   108   109    2
   118   108   107    1
   119   148   149    1
   120   149   150    1
   121   107   106    1
   122    91    92    1
   123    91    82   am
   124    90    88    1
   125   141   142    1
   126    81    80    1
   127    81    82    1
   128    81    84    1
   129    92    93    1
   130    94    93    2
   131   116   118    1
   132    85    84    1
   133    85    86    1
   134   104   103    1
   135    87    88    2
   136    87    86    1
   137    88    89    1
   138    82    83    2
   139   144   142   ar
   140   144   146   ar
   141   142   143   ar
   142   150   151    2
   143   103   102    1
   144   146   147   ar
   145   143   145   ar
   146   147   145   ar
   147   102   101    1
   148   101    98    1
   149   100    99    2
   150    98    99    1
   151    98    97    1
