@<TRIPOS>MOLECULE
tmp/1w6fA00.pdb
 122 123 0 0 0
SMALL
GASTEIGER

@<TRIPOS>ATOM
      1  N         12.4400    8.6780   23.8430 N.3    36  PHE36      -0.1241
      2  CA        13.6730    8.2440   23.2240 C.3    36  PHE36       0.1605
      3  C         13.6770    6.7040   23.1980 C.2    36  PHE36       0.2264
      4  O         13.4350    6.0690   24.2160 O.2    36  PHE36      -0.2867
      5  CB        14.8820    8.7930   24.0100 C.3    36  PHE36       0.0534
      6  CG        16.1890    8.5790   23.3370 C.ar   36  PHE36      -0.0203
      7  CD1       16.7610    9.5790   22.5810 C.ar   36  PHE36      -0.0042
      8  CD2       16.7840    7.3640   23.3470 C.ar   36  PHE36      -0.0042
      9  CE1       17.9920    9.3930   21.9090 C.ar   36  PHE36      -0.0003
     10  CE2       18.0200    7.1340   22.6330 C.ar   36  PHE36      -0.0003
     11  CZ        18.5840    8.1640   21.8980 C.ar   36  PHE36      -0.0000
     12  N         15.3990    8.0940   18.1130 N.3    67  TYR67      -0.1227
     13  CA        16.5690    8.7120   18.6650 C.3    67  TYR67       0.1736
     14  C         16.7470   10.1340   18.0830 C.2    67  TYR67       0.2596
     15  O         15.7590   10.6670   17.5380 O.2    67  TYR67      -0.2718
     16  CB        17.7180    7.6930   18.5770 C.3    67  TYR67       0.0548
     17  CG        18.3370    7.4130   17.2190 C.ar   67  TYR67      -0.0200
     18  CD1       19.3370    6.4760   17.0940 C.ar   67  TYR67      -0.0009
     19  CD2       17.9680    8.1270   16.0770 C.ar   67  TYR67      -0.0009
     20  CE1       19.9270    6.2110   15.8850 C.ar   67  TYR67       0.0417
     21  CE2       18.5830    7.9030   14.8720 C.ar   67  TYR67       0.0417
     22  CZ        19.6010    6.9400   14.7930 C.ar   67  TYR67       0.1957
     23  OH        20.2170    6.6690   13.5840 O.3    67  TYR67      -0.2866
     24  N         17.8930   10.8190   18.2570 N.am   68  CYS68      -0.1956
     25  CA        17.9640   12.2580   18.0040 C.3    68  CYS68       0.1843
     26  C         17.5320   12.7420   16.6230 C.2    68  CYS68       0.2625
     27  O         16.8100   13.7290   16.5190 O.2    68  CYS68      -0.2714
     28  CB        19.3620   12.8740   18.3520 C.3    68  CYS68       0.0997
     29  SG        20.6030   12.3370   17.1570 S.3    68  CYS68      -0.0797
     30  N         17.9370   12.0540   15.5550 N.am   69  TYR69      -0.1974
     31  CA        17.5950   12.4860   14.2220 C.3    69  TYR69       0.1639
     32  C         16.0780   12.4500   13.9910 C.2    69  TYR69       0.2290
     33  O         15.5450   13.2620   13.2440 O.2    69  TYR69      -0.2864
     34  CB        18.3160   11.6030   13.2130 C.3    69  TYR69       0.0560
     35  CG        19.8410   11.7730   13.2170 C.ar   69  TYR69      -0.0198
     36  CD1       20.6610   10.8640   13.8520 C.ar   69  TYR69      -0.0009
     37  CD2       20.4620   12.8280   12.5260 C.ar   69  TYR69      -0.0009
     38  CE1       22.0460   10.9650   13.8110 C.ar   69  TYR69       0.0417
     39  CE2       21.8710   12.9420   12.5110 C.ar   69  TYR69       0.0417
     40  CZ        22.6400   12.0040   13.1290 C.ar   69  TYR69       0.1957
     41  OH        24.0000   12.1080   13.0850 O.3    69  TYR69      -0.2866
     42  N         29.1380   14.2140   20.4730 N.3    93  VAL93      -0.1245
     43  CA        28.7020   13.9710   21.8410 C.3    93  VAL93       0.1561
     44  C         29.9520   13.7820   22.6490 C.2    93  VAL93       0.2260
     45  O         30.7460   12.9460   22.2830 O.2    93  VAL93      -0.2867
     46  CB        27.7980   12.7360   21.9160 C.3    93  VAL93       0.0252
     47  CG1       27.4900   12.3160   23.3980 C.3    93  VAL93       0.0019
     48  CG2       26.5330   13.0230   21.1410 C.3    93  VAL93       0.0019
     49  N         29.7770   13.7020   26.2530 N.3    95  TRP95      -0.1241
     50  CA        29.3130   13.3230   27.5800 C.3    95  TRP95       0.1605
     51  C         30.2090   12.2640   28.2180 C.2    95  TRP95       0.2264
     52  O         30.2900   11.1530   27.7260 O.2    95  TRP95      -0.2867
     53  CB        27.8800   12.7650   27.5170 C.3    95  TRP95       0.0550
     54  CG        27.0940   12.8810   28.8330 C.ar   95  TRP95       0.0003
     55  CD1       27.4090   13.6710   29.9130 C.ar   95  TRP95       0.0946
     56  CD2       25.8480   12.2560   29.1610 C.ar   95  TRP95       0.0152
     57  NE1       26.4530   13.5600   30.8860 N.ar   95  TRP95      -0.2442
     58  CE2       25.4800   12.7000   30.4550 C.ar   95  TRP95       0.0810
     59  CE3       24.9950   11.3860   28.4930 C.ar   95  TRP95       0.0012
     60  CZ2       24.3110   12.2800   31.0930 C.ar   95  TRP95       0.0191
     61  CZ3       23.8300   10.9620   29.1320 C.ar   95  TRP95       0.0001
     62  CH2       23.4990   11.4080   30.4130 C.ar   95  TRP95       0.0015
     63  N         27.3220   12.7680   15.6400 N.3   107  THR107     -0.1203
     64  CA        26.2460   11.7870   15.7550 C.3   107  THR107      0.1994
     65  C         24.9830   12.3620   16.4090 C.2   107  THR107      0.2617
     66  O         24.1030   11.6050   16.7990 O.2   107  THR107     -0.2717
     67  CB        26.6840   10.6110   16.6040 C.3   107  THR107      0.1784
     68  OG1       26.8580   11.0200   17.9780 O.3   107  THR107     -0.2211
     69  CG2       28.0390   10.0340   16.1220 C.3   107  THR107      0.0376
     70  N         24.9560   13.6640   16.6360 N.am  108  HIS108     -0.1975
     71  CA        23.8150   14.3250   17.2570 C.3   108  HIS108      0.1656
     72  C         23.3140   15.4420   16.3140 C.2   108  HIS108      0.2291
     73  O         24.1030   16.0570   15.5970 O.2   108  HIS108     -0.2864
     74  CB        24.1820   14.8720   18.6310 C.3   108  HIS108      0.0771
     75  CG        23.0090   15.3060   19.4640 C.ar  108  HIS108      0.0820
     76  ND1       21.8010   14.6400   19.4730 N.ar  108  HIS108     -0.2267
     77  CD2       22.8640   16.3480   20.3050 C.ar  108  HIS108      0.1154
     78  CE1       20.9870   15.2170   20.3430 C.ar  108  HIS108      0.1986
     79  NE2       21.5890   16.2810   20.8330 N.ar  108  HIS108     -0.2212
     80  N         15.9640   15.4000   21.6700 N.3   127  GLY127     -0.1210
     81  CA        16.4160   14.1700   21.1100 C.3   127  GLY127      0.1956
     82  C         17.6250   13.5600   21.7900 C.2   127  GLY127      0.2611
     83  O         18.1440   12.5460   21.3040 O.2   127  GLY127     -0.2717
     84  N         18.0910   14.1620   22.8820 N.am  128  PHE128     -0.1976
     85  CA        19.3320   13.6840   23.5090 C.3   128  PHE128      0.1639
     86  C         19.0870   12.5090   24.5220 C.2   128  PHE128      0.2290
     87  O         20.0220   11.9020   25.0160 O.2   128  PHE128     -0.2864
     88  CB        20.1090   14.8720   24.1030 C.3   128  PHE128      0.0560
     89  CG        21.4900   14.5590   24.5270 C.ar  128  PHE128     -0.0200
     90  CD1       22.4320   14.1200   23.6220 C.ar  128  PHE128     -0.0042
     91  CD2       21.8670   14.7100   25.8360 C.ar  128  PHE128     -0.0042
     92  CE1       23.7610   13.8580   24.0230 C.ar  128  PHE128     -0.0003
     93  CE2       23.1900   14.3970   26.2500 C.ar  128  PHE128     -0.0003
     94  CZ        24.1160   13.9890   25.3330 C.ar  128  PHE128     -0.0000
     95  N         25.0350    6.0390   12.8450 N.3   194  VAL194     -0.1245
     96  CA        24.6700    5.8120   14.2330 C.3   194  VAL194      0.1561
     97  C         23.7840    4.5440   14.3180 C.2   194  VAL194      0.2260
     98  O         23.7840    3.8690   15.3090 O.2   194  VAL194     -0.2867
     99  CB        23.9450    7.0950   14.8580 C.3   194  VAL194      0.0252
    100  CG1       23.6190    6.8490   16.2790 C.3   194  VAL194      0.0019
    101  CG2       24.8400    8.3340   14.8070 C.3   194  VAL194      0.0019
    102  N         26.8280    2.8690   20.0380 N.3   201  HIS201     -0.1226
    103  CA        26.1000    2.7280   21.2770 C.3   201  HIS201      0.1752
    104  C         24.6290    2.3020   21.0590 C.2   201  HIS201      0.2596
    105  O         24.0640    1.5500   21.8470 O.2   201  HIS201     -0.2718
    106  CB        26.1970    4.0870   22.0160 C.3   201  HIS201      0.0759
    107  CG        25.7390    4.0400   23.4180 C.ar  201  HIS201      0.0818
    108  ND1       24.6700    4.7900   23.8750 N.ar  201  HIS201     -0.2268
    109  CD2       26.2000    3.3450   24.4840 C.ar  201  HIS201      0.1154
    110  CE1       24.4900    4.5530   25.1610 C.ar  201  HIS201      0.1986
    111  NE2       25.4020    3.6760   25.5590 N.ar  201  HIS201     -0.2212
    112  N         24.0360    2.7700   19.9670 N.am  202  PHE202     -0.1976
    113  CA        22.6650    2.4670   19.6310 C.3   202  PHE202      0.1639
    114  C         22.4460    1.1660   18.8340 C.2   202  PHE202      0.2290
    115  O         21.2920    0.7520   18.5830 O.2   202  PHE202     -0.2864
    116  CB        22.0690    3.7220   18.9570 C.3   202  PHE202      0.0560
    117  CG        22.0410    4.8990   19.9060 C.ar  202  PHE202     -0.0200
    118  CD1       22.8080    6.0150   19.6870 C.ar  202  PHE202     -0.0042
    119  CD2       21.3690    4.7850   21.1170 C.ar  202  PHE202     -0.0042
    120  CE1       22.8420    7.0530   20.5850 C.ar  202  PHE202     -0.0003
    121  CE2       21.4070    5.8110   22.0730 C.ar  202  PHE202     -0.0003
    122  CZ        22.1240    6.9690   21.8020 C.ar  202  PHE202     -0.0000
@<TRIPOS>BOND
     1    39    37   ar
     2    39    40   ar
     3    37    35   ar
     4    95    96    1
     5    41    40    1
     6    40    38   ar
     7    34    35    1
     8    34    31    1
     9    35    36   ar
    10    33    32    2
    11    23    22    1
    12    38    36   ar
    13    32    31    1
    14    31    30    1
    15    96    97    1
    16    96    99    1
    17    97    98    2
    18    22    21   ar
    19    22    20   ar
    20   101    99    1
    21    99   100    1
    22    21    19   ar
    23    30    26   am
    24    73    72    2
    25    63    64    1
    26    64    65    1
    27    64    67    1
    28    20    18   ar
    29    19    17   ar
    30    69    67    1
    31    72    71    1
    32    65    70   am
    33    65    66    2
    34    27    26    2
    35    67    68    1
    36    26    25    1
    37    70    71    1
    38    18    17   ar
    39    29    28    1
    40    17    16    1
    41    71    74    1
    42    15    14    2
    43    25    24    1
    44    25    28    1
    45    14    24   am
    46    14    13    1
    47    12    13    1
    48    16    13    1
    49   115   114    2
    50    74    75    1
    51   114   113    1
    52   116   113    1
    53   116   117    1
    54    75    76   ar
    55    75    77   ar
    56    76    78   ar
    57   113   112    1
    58   118   117   ar
    59   118   120   ar
    60   117   119   ar
    61   112   104   am
    62   102   103    1
    63    77    79   ar
    64    78    79   ar
    65    42    43    1
    66   120   122   ar
    67   104   103    1
    68   104   105    2
    69    81    80    1
    70    81    82    1
    71   119   121   ar
    72    48    46    1
    73   103   106    1
    74    83    82    2
    75    82    84   am
    76   122   121   ar
    77    43    46    1
    78    43    44    1
    79    11     9   ar
    80    11    10   ar
    81     9     7   ar
    82    46    47    1
    83   106   107    1
    84    45    44    2
    85     7     6   ar
    86    10     8   ar
    87    84    85    1
    88     3     2    1
    89     3     4    2
    90     2     1    1
    91     2     5    1
    92     6     8   ar
    93     6     5    1
    94   107   108   ar
    95   107   109   ar
    96    85    88    1
    97    85    86    1
    98    90    92   ar
    99    90    89   ar
   100   108   110   ar
   101    92    94   ar
   102    88    89    1
   103   109   111   ar
   104    86    87    2
   105    89    91   ar
   106   110   111   ar
   107    94    93   ar
   108    91    93   ar
   109    49    50    1
   110    53    50    1
   111    53    54    1
   112    50    51    1
   113    52    51    2
   114    59    61   ar
   115    59    56   ar
   116    54    56   ar
   117    54    55   ar
   118    61    62   ar
   119    56    58   ar
   120    55    57   ar
   121    62    60   ar
   122    58    57   ar
   123    58    60   ar
