@<TRIPOS>MOLECULE
tmp/1w6hB00.pdb
 217 203 0 0 0
SMALL
GASTEIGER

@<TRIPOS>ATOM
      1  N         20.4090   71.9030   63.3450 N.3    15  MET15      -0.1245
      2  CA        21.7000   72.5540   63.1620 C.3    15  MET15       0.1570
      3  C         21.5240   73.9810   62.6570 C.2    15  MET15       0.2261
      4  O         20.5350   74.3200   62.0130 O.2    15  MET15      -0.2867
      5  CB        22.5770   71.7740   62.1540 C.3    15  MET15       0.0387
      6  CG        24.0410   72.2490   62.0700 C.3    15  MET15       0.0595
      7  SD        24.9570   72.5930   63.6750 S.3    15  MET15      -0.1393
      8  CE        25.5650   70.8570   64.1310 C.3    15  MET15       0.0692
      9  N         29.6610   75.0590   59.7000 N.3    32  ILE32      -0.1245
     10  CA        29.3290   74.6690   61.0460 C.3    32  ILE32       0.1561
     11  C         30.3310   75.4150   61.9030 C.2    32  ILE32       0.2260
     12  O         31.5180   75.2660   61.7140 O.2    32  ILE32      -0.2867
     13  CB        29.4410   73.2100   61.2480 C.3    32  ILE32       0.0252
     14  CG1       28.2570   72.5180   60.5480 C.3    32  ILE32       0.0019
     15  CG2       29.4830   72.9210   62.7730 C.3    32  ILE32       0.0019
     16  CD1       28.1870   70.9700   60.7170 C.3    32  ILE32       0.0001
     17  N         31.8120   75.5930   65.3360 N.3    34  ASP34      -0.1239
     18  CA        31.9610   74.4490   66.2410 C.3    34  ASP34       0.1674
     19  C         32.8850   74.6860   67.4250 C.2    34  ASP34       0.2266
     20  O         34.1150   74.5010   67.2880 O.2    34  ASP34      -0.2867
     21  CB        32.6180   73.3110   65.4430 C.3    34  ASP34       0.1410
     22  CG        32.6600   72.0560   66.2150 C.2    34  ASP34       0.3668
     23  OD1       33.4330   71.1750   65.8640 O.co2  34  ASP34      -0.2456
     24  OD2       31.9220   71.8740   67.2110 O.co2  34  ASP34      -0.2456
     25  N         33.4860   72.7260   69.5580 N.3    36  GLY36      -0.1210
     26  CA        33.9420   71.4030   69.9100 C.3    36  GLY36       0.1956
     27  C         35.1750   71.0080   69.1170 C.2    36  GLY36       0.2613
     28  O         35.7060   69.9230   69.3430 O.2    36  GLY36      -0.2717
     29  N         35.5950   71.8500   68.1670 N.am   37  SER37      -0.1938
     30  CA        36.8270   71.6380   67.4490 C.3    37  SER37       0.2055
     31  C         37.6710   72.9240   67.3800 C.2    37  SER37       0.2642
     32  O         37.2430   73.9830   67.8470 O.2    37  SER37      -0.2714
     33  CB        36.5380   71.0800   66.0410 C.3    37  SER37       0.2130
     34  OG        35.7110   71.9450   65.2880 O.3    37  SER37      -0.2179
     35  N         38.8700   72.8230   66.7940 N.am   38  ALA38      -0.1977
     36  CA        39.8600   73.9380   66.8580 C.3    38  ALA38       0.1597
     37  C         40.6150   74.1890   65.5480 C.2    38  ALA38       0.2287
     38  O         41.6220   74.9020   65.5270 O.2    38  ALA38      -0.2864
     39  CB        40.8320   73.7220   68.0140 C.3    38  ALA38       0.0319
     40  N         41.7020   65.4500   59.4790 N.3    75  MET75      -0.1230
     41  CA        40.8460   66.0720   60.4970 C.3    75  MET75       0.1702
     42  C         39.7830   65.0960   60.9800 C.2    75  MET75       0.2592
     43  O         38.8890   64.7320   60.2330 O.2    75  MET75      -0.2718
     44  CB        40.1940   67.3170   59.9060 C.3    75  MET75       0.0401
     45  CG        39.5050   68.1950   60.9100 C.3    75  MET75       0.0596
     46  SD        40.6350   68.8740   62.1230 S.3    75  MET75      -0.1393
     47  CE        39.9270   68.1480   63.4990 C.3    75  MET75       0.0692
     48  N         39.8800   64.6420   62.2220 N.am   76  ASN76      -0.1960
     49  CA        38.9850   63.5930   62.7030 C.3    76  ASN76       0.1819
     50  C         37.9560   64.1420   63.6730 C.2    76  ASN76       0.2621
     51  O         38.2810   64.7690   64.6670 O.2    76  ASN76      -0.2715
     52  CB        39.7390   62.4740   63.4250 C.3    76  ASN76       0.1195
     53  CG        40.6200   61.6250   62.4890 C.2    76  ASN76       0.2630
     54  OD1       41.8330   61.4680   62.7440 O.2    76  ASN76      -0.2716
     55  ND2       40.0280   61.0840   61.4250 N.am   76  ASN76      -0.0877
     56  N         36.7110   63.8430   63.4060 N.am   77  TYR77      -0.1960
     57  CA        35.6460   64.2230   64.3170 C.3    77  TYR77       0.1771
     58  C         35.0420   62.9590   64.8950 C.2    77  TYR77       0.2619
     59  O         35.3580   61.8530   64.4640 O.2    77  TYR77      -0.2715
     60  CB        34.6220   65.0390   63.5720 C.3    77  TYR77       0.0574
     61  CG        35.1790   66.3110   62.9730 C.ar   77  TYR77      -0.0198
     62  CD1       35.5610   66.3670   61.6480 C.ar   77  TYR77      -0.0009
     63  CD2       35.2600   67.4690   63.7240 C.ar   77  TYR77      -0.0009
     64  CE1       36.0770   67.5590   61.0930 C.ar   77  TYR77       0.0417
     65  CE2       35.7400   68.6500   63.1950 C.ar   77  TYR77       0.0417
     66  CZ        36.1570   68.6980   61.8900 C.ar   77  TYR77       0.1957
     67  OH        36.6130   69.8850   61.3860 O.3    77  TYR77      -0.2866
     68  N         34.1950   63.0890   65.8890 N.am   78  VAL78      -0.1963
     69  CA        33.5410   61.9110   66.4420 C.3    78  VAL78       0.1727
     70  C         32.7740   61.1720   65.3300 C.2    78  VAL78       0.2616
     71  O         32.7670   59.9310   65.2910 O.2    78  VAL78      -0.2715
     72  CB        32.6040   62.2790   67.6050 C.3    78  VAL78       0.0290
     73  CG1       31.6590   61.1610   67.9200 C.3    78  VAL78       0.0023
     74  CG2       33.4140   62.6920   68.8420 C.3    78  VAL78       0.0023
     75  N         32.1620   61.9020   64.4060 N.am   79  SER79      -0.1950
     76  CA        31.2980   61.2360   63.4500 C.3    79  SER79       0.1924
     77  C         31.7380   61.4050   61.9860 C.2    79  SER79       0.2314
     78  O         30.9160   61.5620   61.0910 O.2    79  SER79      -0.2863
     79  CB        29.8640   61.7090   63.6730 C.3    79  SER79       0.2116
     80  OG        29.7260   63.0530   63.2700 O.3    79  SER79      -0.2180
     81  N         32.8730   61.7160   55.4230 N.3   111  PHE111     -0.1241
     82  CA        31.8510   62.6110   55.9230 C.3   111  PHE111      0.1605
     83  C         30.5190   62.3290   55.2570 C.2   111  PHE111      0.2264
     84  O         29.5670   63.0780   55.4630 O.2   111  PHE111     -0.2867
     85  CB        32.2790   64.0610   55.6310 C.3   111  PHE111      0.0534
     86  CG        32.4960   64.8820   56.8520 C.ar  111  PHE111     -0.0203
     87  CD1       33.3910   64.4570   57.8280 C.ar  111  PHE111     -0.0042
     88  CD2       31.8480   66.0980   57.0220 C.ar  111  PHE111     -0.0042
     89  CE1       33.6260   65.2010   58.9470 C.ar  111  PHE111     -0.0003
     90  CE2       32.0680   66.8650   58.1700 C.ar  111  PHE111     -0.0003
     91  CZ        32.9550   66.4170   59.1310 C.ar  111  PHE111     -0.0000
     92  N         26.1940   62.4230   55.1190 N.3   114  THR114     -0.1218
     93  CA        25.7370   63.7060   55.6800 C.3   114  THR114      0.1862
     94  C         26.1760   64.9530   54.8650 C.2   114  THR114      0.2287
     95  O         25.3880   65.8840   54.6490 O.2   114  THR114     -0.2866
     96  CB        26.2040   63.8540   57.1580 C.3   114  THR114      0.1770
     97  OG1       25.6150   62.8400   57.9800 O.3   114  THR114     -0.2211
     98  CG2       25.6680   65.1420   57.7780 C.3   114  THR114      0.0375
     99  N         26.2190   73.0230   54.3570 N.3   120  PHE120     -0.1241
    100  CA        27.5350   73.5750   54.7320 C.3   120  PHE120      0.1605
    101  C         28.6980   73.0930   53.8510 C.2   120  PHE120      0.2264
    102  O         28.6640   71.9910   53.2530 O.2   120  PHE120     -0.2867
    103  CB        27.8160   73.2890   56.2090 C.3   120  PHE120      0.0534
    104  CG        28.1800   71.8520   56.5170 C.ar  120  PHE120     -0.0203
    105  CD1       27.1870   70.9030   56.7950 C.ar  120  PHE120     -0.0042
    106  CD2       29.5390   71.4700   56.6350 C.ar  120  PHE120     -0.0042
    107  CE1       27.5280   69.5840   57.1300 C.ar  120  PHE120     -0.0003
    108  CE2       29.8950   70.1360   56.9530 C.ar  120  PHE120     -0.0003
    109  CZ        28.8780   69.2050   57.1980 C.ar  120  PHE120     -0.0000
    110  N         34.0350   73.4640   58.1830 N.3   123  ILE123     -0.1245
    111  CA        33.9160   73.6760   59.6150 C.3   123  ILE123      0.1561
    112  C         34.9000   74.6990   60.0940 C.2   123  ILE123      0.2260
    113  O         36.0570   74.7250   59.6890 O.2   123  ILE123     -0.2867
    114  CB        34.0710   72.3270   60.4080 C.3   123  ILE123      0.0252
    115  CG1       33.0000   71.3200   59.9450 C.3   123  ILE123      0.0019
    116  CG2       33.9070   72.5470   61.8930 C.3   123  ILE123      0.0019
    117  CD1       32.9910   70.0210   60.7070 C.3   123  ILE123      0.0001
    118  N         43.4560   71.6290   71.3000 N.3   131  LEU131     -0.1245
    119  CA        42.5060   70.7460   70.6260 C.3   131  LEU131      0.1561
    120  C         42.7740   70.7300   69.1230 C.2   131  LEU131      0.2260
    121  O         42.3060   69.8500   68.4060 O.2   131  LEU131     -0.2867
    122  CB        41.1020   71.2350   70.9230 C.3   131  LEU131      0.0270
    123  CG        39.9590   70.3670   70.4270 C.3   131  LEU131      0.0019
    124  CD1       40.0090   69.0120   71.0820 C.3   131  LEU131      0.0001
    125  CD2       38.6350   71.1020   70.7070 C.3   131  LEU131      0.0001
    126  N         44.6980   70.4030   65.5180 N.3   133  ILE133     -0.1245
    127  CA        45.7880   69.7070   64.8470 C.3   133  ILE133      0.1561
    128  C         46.6430   70.7800   64.1580 C.2   133  ILE133      0.2260
    129  O         46.1340   71.6200   63.3880 O.2   133  ILE133     -0.2867
    130  CB        45.2760   68.7450   63.7970 C.3   133  ILE133      0.0252
    131  CG1       44.2670   67.7450   64.4060 C.3   133  ILE133      0.0019
    132  CG2       46.4680   68.0070   63.1580 C.3   133  ILE133      0.0019
    133  CD1       43.5620   66.8700   63.3700 C.3   133  ILE133      0.0001
    134  N         38.4230   71.5530   75.0620 N.3   192  TYR192     -0.1241
    135  CA        37.0970   71.8750   74.5990 C.3   192  TYR192      0.1605
    136  C         36.6990   73.0050   75.5510 C.2   192  TYR192      0.2264
    137  O         37.4410   73.3350   76.4580 O.2   192  TYR192     -0.2867
    138  CB        36.1100   70.6800   74.7630 C.3   192  TYR192      0.0534
    139  CG        36.5300   69.4210   74.0330 C.ar  192  TYR192     -0.0201
    140  CD1       37.4290   68.4850   74.6180 C.ar  192  TYR192     -0.0009
    141  CD2       36.0250   69.1350   72.7740 C.ar  192  TYR192     -0.0009
    142  CE1       37.8120   67.3620   73.9400 C.ar  192  TYR192      0.0417
    143  CE2       36.3960   68.0240   72.1210 C.ar  192  TYR192      0.0417
    144  CZ        37.2840   67.1190   72.7090 C.ar  192  TYR192      0.1957
    145  OH        37.6560   66.0160   71.9850 O.3   192  TYR192     -0.2866
    146  N         29.1300   72.2790   73.1850 N.3   214  ASP214     -0.1239
    147  CA        29.4980   72.0490   71.7970 C.3   214  ASP214      0.1674
    148  C         28.4200   72.5290   70.8190 C.2   214  ASP214      0.2266
    149  O         27.3990   71.8730   70.6060 O.2   214  ASP214     -0.2867
    150  CB        29.7870   70.5630   71.5850 C.3   214  ASP214      0.1410
    151  CG        30.4240   70.2840   70.2950 C.2   214  ASP214      0.3668
    152  OD1       30.5920   71.2120   69.4850 O.co2 214  ASP214     -0.2456
    153  OD2       30.8340   69.1500   70.0050 O.co2 214  ASP214     -0.2456
    154  N         28.7810   72.6800   67.7370 N.3   216  GLY216     -0.1210
    155  CA        28.8890   71.8780   66.5240 C.3   216  GLY216      0.1956
    156  C         28.3330   70.4780   66.5920 C.2   216  GLY216      0.2613
    157  O         28.6260   69.6430   65.7080 O.2   216  GLY216     -0.2717
    158  N         27.5220   70.2220   67.6100 N.am  217  THR217     -0.1938
    159  CA        26.8970   68.9430   67.8530 C.3   217  THR217      0.2028
    160  C         25.3790   69.1220   67.9170 C.2   217  THR217      0.2643
    161  O         24.8740   69.9360   68.6830 O.2   217  THR217     -0.2714
    162  CB        27.4070   68.3790   69.2190 C.3   217  THR217      0.1808
    163  OG1       28.7070   67.8110   69.0550 O.3   217  THR217     -0.2208
    164  CG2       26.5430   67.1780   69.7270 C.3   217  THR217      0.0379
    165  N         24.6350   68.3460   67.1560 N.am  218  SER218     -0.1935
    166  CA        23.1920   68.5750   67.0860 C.3   218  SER218      0.2055
    167  C         22.3740   67.7810   68.1210 C.2   218  SER218      0.2642
    168  O         21.1380   67.8470   68.1420 O.2   218  SER218     -0.2714
    169  CB        22.6750   68.3630   65.6630 C.3   218  SER218      0.2130
    170  OG        22.9240   67.0410   65.2140 O.3   218  SER218     -0.2179
    171  N         23.0560   67.1200   69.0410 N.am  219  ALA219     -0.1977
    172  CA        22.3990   66.4120   70.1260 C.3   219  ALA219      0.1597
    173  C         22.9690   66.7100   71.5120 C.2   219  ALA219      0.2287
    174  O         23.9460   67.4330   71.6600 O.2   219  ALA219     -0.2864
    175  CB        22.5290   64.9420   69.8510 C.3   219  ALA219      0.0319
    176  N         24.8370   64.3330   74.1580 N.3   221  THR221     -0.1218
    177  CA        25.4050   62.9910   74.3270 C.3   221  THR221      0.1862
    178  C         25.5460   62.7180   75.8110 C.2   221  THR221      0.2287
    179  O         25.8120   63.6360   76.6120 O.2   221  THR221     -0.2866
    180  CB        26.7640   62.7760   73.5940 C.3   221  THR221      0.1770
    181  OG1       27.8410   63.4100   74.3050 O.3   221  THR221     -0.2211
    182  CG2       26.7590   63.3630   72.1710 C.3   221  THR221      0.0375
    183  N         22.2130   60.8970   72.4960 N.3   286  ILE286     -0.1245
    184  CA        22.9800   59.7840   72.0070 C.3   286  ILE286      0.1561
    185  C         23.9210   59.2730   73.1250 C.2   286  ILE286      0.2260
    186  O         24.3670   60.0310   73.9760 O.2   286  ILE286     -0.2867
    187  CB        23.7150   60.2310   70.7460 C.3   286  ILE286      0.0252
    188  CG1       22.7510   60.1750   69.5520 C.3   286  ILE286      0.0019
    189  CG2       24.9540   59.3390   70.4510 C.3   286  ILE286      0.0019
    190  CD1       21.7890   61.3600   69.4450 C.3   286  ILE286      0.0001
    191  N         27.4270   57.9530   74.2660 N.3   288  LEU288     -0.1245
    192  CA        28.7880   58.1180   73.7910 C.3   288  LEU288      0.1561
    193  C         29.7520   58.1160   74.9690 C.2   288  LEU288      0.2260
    194  O         29.6230   58.9030   75.8940 O.2   288  LEU288     -0.2867
    195  CB        28.8950   59.4240   73.0400 C.3   288  LEU288      0.0270
    196  CG        30.2010   59.7240   72.3440 C.3   288  LEU288      0.0019
    197  CD1       30.3900   58.7890   71.1260 C.3   288  LEU288      0.0001
    198  CD2       30.2250   61.1630   71.9190 C.3   288  LEU288      0.0001
    199  N         33.4620   58.3900   76.5570 N.3   290  PHE290     -0.1241
    200  CA        34.8650   58.7960   76.5780 C.3   290  PHE290      0.1605
    201  C         35.6160   58.1710   77.7770 C.2   290  PHE290      0.2264
    202  O         34.9710   57.6410   78.6580 O.2   290  PHE290     -0.2867
    203  CB        34.9330   60.3180   76.6130 C.3   290  PHE290      0.0534
    204  CG        34.2560   60.9660   75.4510 C.ar  290  PHE290     -0.0203
    205  CD1       34.8740   61.0020   74.2040 C.ar  290  PHE290     -0.0042
    206  CD2       32.9810   61.5140   75.5880 C.ar  290  PHE290     -0.0042
    207  CE1       34.2400   61.6090   73.1060 C.ar  290  PHE290     -0.0003
    208  CE2       32.3440   62.1150   74.5170 C.ar  290  PHE290     -0.0003
    209  CZ        32.9720   62.1630   73.2690 C.ar  290  PHE290     -0.0000
    210  N         28.0180   65.7660   76.3590 N.3   296  ILE296     -0.1245
    211  CA        28.1470   66.8460   75.3810 C.3   296  ILE296      0.1561
    212  C         26.8310   67.6160   75.3790 C.2   296  ILE296      0.2260
    213  O         25.8090   67.1070   74.9870 O.2   296  ILE296     -0.2867
    214  CB        28.4770   66.3940   73.9720 C.3   296  ILE296      0.0252
    215  CG1       29.8980   65.7870   73.8210 C.3   296  ILE296      0.0019
    216  CG2       28.4240   67.6200   73.0320 C.3   296  ILE296      0.0019
    217  CD1       30.4590   65.1180   75.0090 C.3   296  ILE296      0.0001
@<TRIPOS>BOND
     1   102   101    2
     2   101   100    1
     3    99   100    1
     4    95    94    2
     5   100   103    1
     6    94    93    1
     7    92    93    1
     8    83    84    2
     9    83    82    1
    10    81    82    1
    11    85    82    1
    12    85    86    1
    13    93    96    1
    14   103   104    1
    15   104   106   ar
    16   104   105   ar
    17   106   108   ar
    18   105   107   ar
    19    86    88   ar
    20    86    87   ar
    21   108   109   ar
    22    88    90   ar
    23   107   109   ar
    24    96    98    1
    25    96    97    1
    26    87    89   ar
    27    90    91   ar
    28   110   111    1
    29    89    91   ar
    30    40    41    1
    31   111   112    1
    32   111   114    1
    33   113   112    2
    34     9    10    1
    35    44    41    1
    36    44    45    1
    37   115   114    1
    38   115   117    1
    39    43    42    2
    40   114   116    1
    41    41    42    1
    42    14    16    1
    43    14    13    1
    44    45    46    1
    45    42    48   am
    46    10    13    1
    47    10    11    1
    48    78    77    2
    49    64    62   ar
    50    64    66   ar
    51    13    15    1
    52    67    66    1
    53    55    53   am
    54    62    61   ar
    55    12    11    2
    56    66    65   ar
    57    77    76    1
    58     4     3    2
    59     6     5    1
    60     6     7    1
    61    46    47    1
    62     5     2    1
    63    48    49    1
    64    53    54    2
    65    53    52    1
    66     3     2    1
    67    49    52    1
    68    49    50    1
    69    61    60    1
    70    61    63   ar
    71   132   130    1
    72     2     1    1
    73    65    63   ar
    74    80    79    1
    75   133   131    1
    76   129   128    2
    77    56    50   am
    78    56    57    1
    79    76    79    1
    80    76    75    1
    81    60    57    1
    82    50    51    2
    83     7     8    1
    84   130   131    1
    85   130   127    1
    86   128   127    1
    87    57    58    1
    88    75    70   am
    89    59    58    2
    90   127   126    1
    91    58    68   am
    92   170   169    1
    93    34    33    1
    94    71    70    2
    95    70    69    1
    96    17    18    1
    97    21    22    1
    98    21    18    1
    99    38    37    2
   100    37    36    1
   101   169   166    1
   102   157   156    2
   103    23    22   ar
   104    68    69    1
   105    33    30    1
   106    22    24   ar
   107    18    19    1
   108    69    72    1
   109   155   156    1
   110   155   154    1
   111   156   158   am
   112    35    36    1
   113    35    31   am
   114    36    39    1
   115   166   165    1
   116   166   167    1
   117   165   160   am
   118    20    19    2
   119    31    30    1
   120    31    32    2
   121    30    29    1
   122    72    73    1
   123    72    74    1
   124   158   159    1
   125   159   160    1
   126   159   162    1
   127   160   161    2
   128   167   168    2
   129   167   171   am
   130    29    27   am
   131   121   120    2
   132   171   172    1
   133   163   162    1
   134    27    28    2
   135    27    26    1
   136   120   119    1
   137   162   164    1
   138   190   188    1
   139   152   151   ar
   140   188   187    1
   141    25    26    1
   142   175   172    1
   143   153   151   ar
   144   172   173    1
   145   151   150    1
   146   123   125    1
   147   123   122    1
   148   123   124    1
   149   189   187    1
   150   149   148    2
   151   119   122    1
   152   119   118    1
   153   187   184    1
   154   148   147    1
   155   197   196    1
   156   173   174    2
   157   150   147    1
   158   147   146    1
   159   198   196    1
   160   145   144    1
   161   184   183    1
   162   184   185    1
   163   143   144   ar
   164   143   141   ar
   165   182   180    1
   166   196   195    1
   167   144   142   ar
   168   141   139   ar
   169   216   214    1
   170   195   192    1
   171   207   209   ar
   172   207   205   ar
   173   185   186    2
   174   209   208   ar
   175   180   181    1
   176   180   177    1
   177   192   191    1
   178   192   193    1
   179   215   214    1
   180   215   217    1
   181   142   140   ar
   182   214   211    1
   183   139   140   ar
   184   139   138    1
   185   176   177    1
   186   205   204   ar
   187   177   178    1
   188   208   206   ar
   189   135   138    1
   190   135   134    1
   191   135   136    1
   192   193   194    2
   193   213   212    2
   194   212   211    1
   195   211   210    1
   196   204   206   ar
   197   204   203    1
   198   136   137    2
   199   178   179    2
   200   199   200    1
   201   200   203    1
   202   200   201    1
   203   201   202    2
