@<TRIPOS>MOLECULE
tmp/1w6pA00.pdb
 103 96 0 0 0
SMALL
GASTEIGER

@<TRIPOS>ATOM
      1  N          5.9200   50.6240   23.5730 N.3    30  VAL30      -0.1245
      2  CA         6.6610   51.6660   24.2550 C.3    30  VAL30       0.1561
      3  C          7.8790   51.1580   25.0000 C.2    30  VAL30       0.2260
      4  O          7.8880   50.0510   25.5350 O.2    30  VAL30      -0.2867
      5  CB         5.7620   52.3890   25.2930 C.3    30  VAL30       0.0252
      6  CG1        6.5950   53.3500   26.1350 C.3    30  VAL30       0.0019
      7  CG2        4.6390   53.1420   24.5900 C.3    30  VAL30       0.0019
      8  N         10.3310   58.5950   26.4130 N.3    43  HIS43      -0.1241
      9  CA         9.1550   57.7550   26.2430 C.3    43  HIS43       0.1621
     10  C          9.2340   57.5010   24.7420 C.2    43  HIS43       0.2264
     11  O          8.8980   58.3770   23.9470 O.2    43  HIS43      -0.2867
     12  CB         7.8810   58.5340   26.5930 C.3    43  HIS43       0.0745
     13  CG         6.6090   57.8520   26.1840 C.ar   43  HIS43       0.0817
     14  ND1        6.1590   56.6900   26.7720 N.ar   43  HIS43      -0.2268
     15  CD2        5.6750   58.1920   25.2630 C.ar   43  HIS43       0.1154
     16  CE1        5.0020   56.3440   26.2350 C.ar   43  HIS43       0.1986
     17  NE2        4.6860   57.2400   25.3160 N.ar   43  HIS43      -0.2212
     18  N          7.8220   55.7940   21.7260 N.3    45  ASN45      -0.1240
     19  CA         6.5460   55.1980   21.3480 C.3    45  ASN45       0.1653
     20  C          6.2340   55.0230   19.8620 C.2    45  ASN45       0.2266
     21  O          5.6120   55.8890   19.2500 O.2    45  ASN45      -0.2867
     22  CB         5.4460   56.0370   22.0070 C.3    45  ASN45       0.1155
     23  CG         4.0500   55.4890   21.7860 C.2    45  ASN45       0.2627
     24  OD1        3.0690   56.2120   21.9700 O.2    45  ASN45      -0.2716
     25  ND2        3.9450   54.2180   21.4130 N.am   45  ASN45      -0.0877
     26  N          4.1500   54.1490   16.9840 N.3    47  ARG47      -0.1245
     27  CA         2.7200   53.9210   16.8220 C.3    47  ARG47       0.1563
     28  C          2.3950   53.4420   15.4140 C.2    47  ARG47       0.2260
     29  O          2.5520   54.1840   14.4440 O.2    47  ARG47      -0.2867
     30  CB         1.9420   55.2080   17.1100 C.3    47  ARG47       0.0307
     31  CG         2.0890   55.7180   18.5360 C.3    47  ARG47       0.0489
     32  CD         1.4150   57.0650   18.7190 C.3    47  ARG47       0.2205
     33  NE         1.5560   57.5530   20.0890 N.pl3  47  ARG47      -0.0865
     34  CZ         1.1600   58.7520   20.5030 C.cat  47  ARG47       0.5346
     35  NH1        0.5980   59.5980   19.6490 N.pl3  47  ARG47       0.1354
     36  NH2        1.3260   59.1030   21.7730 N.pl3  47  ARG47       0.1354
     37  N         -3.8330   56.6130   18.5110 N.3    51  HIS51      -0.1241
     38  CA        -3.9540   58.0300   18.8340 C.3    51  HIS51       0.1621
     39  C         -3.9380   58.9550   17.6230 C.2    51  HIS51       0.2264
     40  O         -3.5300   60.1110   17.7260 O.2    51  HIS51      -0.2867
     41  CB        -2.8370   58.4300   19.7970 C.3    51  HIS51       0.0745
     42  CG        -2.7980   57.6040   21.0430 C.ar   51  HIS51       0.0817
     43  ND1       -3.8280   57.5910   21.9590 N.ar   51  HIS51      -0.2268
     44  CD2       -1.8650   56.7430   21.5140 C.ar   51  HIS51       0.1154
     45  CE1       -3.5310   56.7580   22.9400 C.ar   51  HIS51       0.1986
     46  NE2       -2.3450   56.2300   22.6940 N.ar   51  HIS51      -0.2212
     47  N         -2.1420   58.4950   14.9750 N.3    53  ASP53      -0.1239
     48  CA        -0.8780   58.3550   14.2650 C.3    53  ASP53       0.1674
     49  C         -0.8150   57.0260   13.5210 C.2    53  ASP53       0.2266
     50  O         -1.2300   55.9890   14.0420 O.2    53  ASP53      -0.2867
     51  CB         0.3020   58.4370   15.2390 C.3    53  ASP53       0.1410
     52  CG         0.5200   59.8360   15.7850 C.2    53  ASP53       0.3668
     53  OD1        0.8830   60.7380   15.0010 O.co2  53  ASP53      -0.2456
     54  OD2        0.3290   60.0320   17.0010 O.co2  53  ASP53      -0.2456
     55  N          6.6660   58.3940   18.0310 N.3    58  VAL58      -0.1245
     56  CA         6.4020   59.5380   18.8870 C.3    58  VAL58       0.1561
     57  C          7.2570   59.4160   20.1360 C.2    58  VAL58       0.2260
     58  O          7.2870   58.3640   20.7790 O.2    58  VAL58      -0.2867
     59  CB         4.9230   59.6040   19.3170 C.3    58  VAL58       0.0252
     60  CG1        4.7050   60.7950   20.2530 C.3    58  VAL58       0.0019
     61  CG2        4.0330   59.7220   18.0940 C.3    58  VAL58       0.0019
     62  N          8.5700   61.4780   23.8390 N.3    60  ASN60      -0.1240
     63  CA         8.2350   62.5390   24.7660 C.3    60  ASN60       0.1653
     64  C          8.9620   62.3110   26.0730 C.2    60  ASN60       0.2266
     65  O          9.5710   61.2610   26.2910 O.2    60  ASN60      -0.2867
     66  CB         6.7250   62.5780   25.0160 C.3    60  ASN60       0.1155
     67  CG         6.2470   63.9410   25.4840 C.2    60  ASN60       0.2627
     68  OD1        7.0480   64.8010   25.8450 O.2    60  ASN60      -0.2716
     69  ND2        4.9340   64.1410   25.4860 N.am   60  ASN60      -0.0877
     70  N          3.4070   64.9970   30.8980 N.3    67  TRP67      -0.1241
     71  CA         3.9830   64.7810   29.5740 C.3    67  TRP67       0.1605
     72  C          4.5430   66.0860   29.0190 C.2    67  TRP67       0.2264
     73  O          3.9710   67.1580   29.2260 O.2    67  TRP67      -0.2867
     74  CB         2.9280   64.2480   28.6010 C.3    67  TRP67       0.0550
     75  CG         2.5290   62.8250   28.8330 C.ar   67  TRP67       0.0003
     76  CD1        1.2810   62.3650   29.1370 C.ar   67  TRP67       0.0946
     77  CD2        3.3740   61.6720   28.7510 C.ar   67  TRP67       0.0152
     78  NE1        1.2950   60.9950   29.2490 N.ar   67  TRP67      -0.2442
     79  CE2        2.5680   60.5430   29.0180 C.ar   67  TRP67       0.0810
     80  CE3        4.7350   61.4810   28.4790 C.ar   67  TRP67       0.0012
     81  CZ2        3.0770   59.2400   29.0190 C.ar   67  TRP67       0.0191
     82  CZ3        5.2430   60.1820   28.4800 C.ar   67  TRP67       0.0001
     83  CH2        4.4130   59.0800   28.7500 C.ar   67  TRP67       0.0015
     84  N          5.6380   66.5470   22.5980 N.3    70  GLU70      -0.1245
     85  CA         5.9710   65.4010   21.7620 C.3    70  GLU70       0.1567
     86  C          6.8510   65.7410   20.5660 C.2    70  GLU70       0.2260
     87  O          6.8170   66.8550   20.0370 O.2    70  GLU70      -0.2867
     88  CB         4.7020   64.7250   21.2410 C.3    70  GLU70       0.0388
     89  CG         3.7250   64.2740   22.3070 C.3    70  GLU70       0.1160
     90  CD         2.4980   63.6110   21.7080 C.2    70  GLU70       0.3649
     91  OE1        2.0300   64.0730   20.6470 O.co2  70  GLU70      -0.2457
     92  OE2        1.9960   62.6350   22.3000 O.co2  70  GLU70      -0.2457
     93  N          8.1090   63.9100   16.8080 N.3    72  ARG72      -0.1245
     94  CA         7.7820   62.8420   15.8720 C.3    72  ARG72       0.1563
     95  C          8.8750   62.7220   14.8230 C.2    72  ARG72       0.2260
     96  O          9.4290   63.7300   14.3840 O.2    72  ARG72      -0.2867
     97  CB         6.4320   63.1220   15.2070 C.3    72  ARG72       0.0307
     98  CG         5.2470   62.9070   16.1410 C.3    72  ARG72       0.0489
     99  CD         3.9130   63.1730   15.4540 C.3    72  ARG72       0.2205
    100  NE         2.7890   62.6700   16.2430 N.pl3  72  ARG72      -0.0865
    101  CZ         2.4650   63.1120   17.4550 C.cat  72  ARG72       0.5346
    102  NH1        3.1780   64.0730   18.0260 N.pl3  72  ARG72       0.1354
    103  NH2        1.4320   62.5860   18.1020 N.pl3  72  ARG72       0.1354
@<TRIPOS>BOND
     1    49    50    2
     2    49    48    1
     3    48    47    1
     4    48    51    1
     5    96    95    2
     6    29    28    2
     7    95    94    1
     8    53    52   ar
     9    97    94    1
    10    97    98    1
    11    51    52    1
    12    28    27    1
    13    99    98    1
    14    99   100    1
    15    52    54   ar
    16    94    93    1
    17   100   101    2
    18    27    26    1
    19    27    30    1
    20    30    31    1
    21   101   102    1
    22   101   103    1
    23    39    40    2
    24    39    38    1
    25    55    56    1
    26    61    59    1
    27    37    38    1
    28    31    32    1
    29    32    33    1
    30    38    41    1
    31    56    59    1
    32    56    57    1
    33    21    20    2
    34    59    60    1
    35    35    34    1
    36    41    42    1
    37    20    19    1
    38    87    86    2
    39    33    34    2
    40    57    58    2
    41    34    36    1
    42    86    85    1
    43    91    90   ar
    44    42    44   ar
    45    42    43   ar
    46    88    85    1
    47    88    89    1
    48    19    18    1
    49    19    22    1
    50    25    23   am
    51    44    46   ar
    52    90    92   ar
    53    90    89    1
    54    85    84    1
    55    23    24    2
    56    23    22    1
    57    43    45   ar
    58    46    45   ar
    59     1     2    1
    60    62    63    1
    61    11    10    2
    62     2     3    1
    63     2     5    1
    64     7     5    1
    65    10     9    1
    66    63    66    1
    67    63    64    1
    68     3     4    2
    69    66    67    1
    70    15    17   ar
    71    15    13   ar
    72     5     6    1
    73    17    16   ar
    74    67    69   am
    75    67    68    2
    76    64    65    2
    77    13    12    1
    78    13    14   ar
    79    16    14   ar
    80     9     8    1
    81     9    12    1
    82    80    82   ar
    83    80    77   ar
    84    82    83   ar
    85    74    75    1
    86    74    71    1
    87    83    81   ar
    88    77    75   ar
    89    77    79   ar
    90    75    76   ar
    91    79    81   ar
    92    79    78   ar
    93    72    73    2
    94    72    71    1
    95    76    78   ar
    96    71    70    1
