@<TRIPOS>MOLECULE
tmp/1w6sC00.pdb
 201 193 0 0 0
SMALL
GASTEIGER

@<TRIPOS>ATOM
      1  N         -0.3200   -7.4500   11.2620 N.3    55  GLU55      -0.1245
      2  CA        -0.7840   -8.5210   12.1580 C.3    55  GLU55       0.1567
      3  C         -1.9230   -8.0800   13.0600 C.2    55  GLU55       0.2260
      4  O         -2.3410   -6.9070   13.0830 O.2    55  GLU55      -0.2867
      5  CB         0.4000   -9.1060   13.0000 C.3    55  GLU55       0.0388
      6  CG         1.3400   -9.9750   12.1600 C.3    55  GLU55       0.1160
      7  CD         2.5150  -10.6410   12.8430 C.2    55  GLU55       0.3649
      8  OE1        2.7950  -10.3830   14.0180 O.co2  55  GLU55      -0.2457
      9  OE2        3.2250  -11.4580   12.1470 O.co2  55  GLU55      -0.2457
     10  N         14.0420   -9.1070   14.9720 N.3   103  CYS103     -0.1221
     11  CA        14.4180  -10.3720   14.3100 C.3   103  CYS103      0.1808
     12  C         13.5900  -10.6250   13.0580 C.2   103  CYS103      0.2601
     13  O         14.1680  -11.2510   12.1530 O.2   103  CYS103     -0.2717
     14  CB        14.3130  -11.6690   15.1300 C.3   103  CYS103      0.0970
     15  SG        12.6250  -12.0950   15.6940 S.3   103  CYS103     -0.0800
     16  N         12.3190  -10.2580   13.0510 N.am  104  CYS104     -0.1956
     17  CA        11.3160  -10.9790   12.2580 C.3   104  CYS104      0.1843
     18  C         10.2550  -10.1300   11.5600 C.2   104  CYS104      0.2625
     19  O          9.0550  -10.5240   11.5250 O.2   104  CYS104     -0.2714
     20  CB        10.6880  -11.9920   13.2440 C.3   104  CYS104      0.0997
     21  SG        11.7880  -13.1730   14.0700 S.3   104  CYS104     -0.0797
     22  N         10.6540   -9.0300   10.9870 N.am  105  ASP105     -0.1971
     23  CA         9.8450   -7.9610   10.3430 C.3   105  ASP105      0.1709
     24  C          9.3100   -6.9320   11.3870 C.2   105  ASP105      0.2293
     25  O          9.2960   -7.2000   12.6180 O.2   105  ASP105     -0.2864
     26  CB         8.6940   -8.5050    9.4640 C.3   105  ASP105      0.1436
     27  CG         8.1340   -7.4910    8.4650 C.2   105  ASP105      0.3671
     28  OD1        8.7140   -6.4240    8.1370 O.co2 105  ASP105     -0.2456
     29  OD2        6.9860   -7.7630    7.9600 O.co2 105  ASP105     -0.2456
     30  N          6.4840   -5.7690   12.6540 N.3   107  VAL107     -0.1245
     31  CA         5.0840   -6.1040   12.9490 C.3   107  VAL107      0.1561
     32  C          4.6090   -5.6220   14.3340 C.2   107  VAL107      0.2260
     33  O          5.4330   -5.3890   15.2420 O.2   107  VAL107     -0.2867
     34  CB         4.8260   -7.6270   12.7870 C.3   107  VAL107      0.0252
     35  CG1        5.0370   -8.1400   11.3130 C.3   107  VAL107      0.0019
     36  CG2        5.7160   -8.4690   13.7200 C.3   107  VAL107      0.0019
     37  N          0.9920   -6.6850   17.0630 N.3   109  ARG109     -0.1245
     38  CA        -0.2210   -7.5520   17.1420 C.3   109  ARG109      0.1563
     39  C         -1.4790   -6.8370   17.6700 C.2   109  ARG109      0.2260
     40  O         -2.5470   -7.5180   17.7600 O.2   109  ARG109     -0.2867
     41  CB         0.1180   -8.8790   17.9000 C.3   109  ARG109      0.0307
     42  CG         1.0900   -9.7860   17.1290 C.3   109  ARG109      0.0489
     43  CD         1.5310  -11.1670   17.7850 C.3   109  ARG109      0.2205
     44  NE         2.7630  -11.3770   16.9890 N.pl3 109  ARG109     -0.0865
     45  CZ         4.0140  -11.0040   17.1850 C.cat 109  ARG109      0.5346
     46  NH1        4.2860  -10.4800   18.3830 N.pl3 109  ARG109      0.1354
     47  NH2        4.9260  -11.1770   16.2450 N.pl3 109  ARG109      0.1354
     48  N         13.0310   -5.0040   22.2170 N.3   157  THR157     -0.1218
     49  CA        11.9630   -4.3260   21.4350 C.3   157  THR157      0.1862
     50  C         10.5510   -4.7540   21.8910 C.2   157  THR157      0.2287
     51  O         10.4070   -5.6780   22.7570 O.2   157  THR157     -0.2866
     52  CB        12.0360   -4.6110   19.8980 C.3   157  THR157      0.1770
     53  OG1       11.9460   -6.0370   19.6700 O.3   157  THR157     -0.2211
     54  CG2       13.3310   -4.0910   19.2650 C.3   157  THR157      0.0375
     55  N          6.6480   -6.0240   20.1430 N.3   159  THR159     -0.1218
     56  CA         5.6860   -6.3740   19.0600 C.3   159  THR159      0.1862
     57  C          4.3410   -6.8820   19.6130 C.2   159  THR159      0.2287
     58  O          3.2890   -6.8560   18.8840 O.2   159  THR159     -0.2866
     59  CB         6.2320   -7.4410   18.0720 C.3   159  THR159      0.1770
     60  OG1        6.4900   -8.6430   18.8400 O.3   159  THR159     -0.2211
     61  CG2        7.5130   -6.9620   17.3680 C.3   159  THR159      0.0375
     62  N         10.3170   -8.9130   23.9090 N.3   174  SER174     -0.1202
     63  CA        10.8900   -9.4950   22.7010 C.3   174  SER174      0.2020
     64  C         12.4220   -9.3030   22.6770 C.2   174  SER174      0.2619
     65  O         12.9170   -8.2940   23.2170 O.2   174  SER174     -0.2717
     66  CB        10.3650   -8.8660   21.3660 C.3   174  SER174      0.2103
     67  OG         8.9810   -9.2270   21.1430 O.3   174  SER174     -0.2182
     68  N         13.1600  -10.2480   22.0570 N.am  175  GLY175     -0.1942
     69  CA        14.6080  -10.2050   21.8910 C.3   175  GLY175      0.2014
     70  C         15.4270  -11.4270   22.2710 C.2   175  GLY175      0.2639
     71  O         16.6690  -11.2930   22.4370 O.2   175  GLY175     -0.2714
     72  N         14.8530  -12.6440   22.3560 N.am  176  ALA176     -0.1963
     73  CA        15.6570  -13.8440   22.6930 C.3   176  ALA176      0.1728
     74  C         16.7340  -14.1200   21.6370 C.2   176  ALA176      0.2616
     75  O         17.7950  -14.6780   21.9970 O.2   176  ALA176     -0.2715
     76  CB        14.7580  -15.0800   22.9350 C.3   176  ALA176      0.0334
     77  N         16.5410  -13.7480   20.3820 N.am  177  GLU177     -0.1977
     78  CA        17.5900  -13.8910   19.3550 C.3   177  GLU177      0.1602
     79  C         18.7870  -12.9640   19.5960 C.2   177  GLU177      0.2287
     80  O         19.8270  -13.1130   18.9060 O.2   177  GLU177     -0.2864
     81  CB        16.9870  -13.6410   17.9460 C.3   177  GLU177      0.0415
     82  CG        16.2930  -14.8620   17.3200 C.3   177  GLU177      0.1163
     83  CD        15.1380  -15.4490   18.1250 C.2   177  GLU177      0.3649
     84  OE1       15.2360  -16.5450   18.7870 O.co2 177  GLU177     -0.2457
     85  OE2       14.0260  -14.8280   18.0450 O.co2 177  GLU177     -0.2457
     86  N         11.5450  -14.6390   26.6120 N.3   241  THR241     -0.1218
     87  CA        10.5960  -13.5390   26.2890 C.3   241  THR241      0.1862
     88  C          9.1830  -14.0250   25.9700 C.2   241  THR241      0.2287
     89  O          9.0060  -15.1340   25.4140 O.2   241  THR241     -0.2866
     90  CB        11.1430  -12.7030   25.1170 C.3   241  THR241      0.1770
     91  OG1       11.5250  -13.6450   24.0610 O.3   241  THR241     -0.2211
     92  CG2       12.3830  -11.9200   25.5520 C.3   241  THR241      0.0375
     93  N          5.8540  -12.9510   23.7670 N.3   243  TRP243     -0.1241
     94  CA         5.4490  -12.0520   22.6720 C.3   243  TRP243      0.1605
     95  C          4.1400  -12.4970   21.9690 C.2   243  TRP243      0.2264
     96  O          3.7270  -11.8740   20.9580 O.2   243  TRP243     -0.2867
     97  CB         6.6090  -11.7960   21.6840 C.3   243  TRP243      0.0550
     98  CG         7.2780  -13.0570   21.1730 C.ar  243  TRP243      0.0003
     99  CD1        8.3470  -13.6950   21.7940 C.ar  243  TRP243      0.0946
    100  CD2        6.9640  -13.8340   20.0040 C.ar  243  TRP243      0.0152
    101  NE1        8.7120  -14.8300   21.0660 N.ar  243  TRP243     -0.2442
    102  CE2        7.8690  -14.9290   19.9430 C.ar  243  TRP243      0.0810
    103  CE3        6.0030  -13.6890   18.9870 C.ar  243  TRP243      0.0012
    104  CZ2        7.8330  -15.8850   18.9250 C.ar  243  TRP243      0.0191
    105  CZ3        5.9920  -14.6570   17.9640 C.ar  243  TRP243      0.0001
    106  CH2        6.8920  -15.7490   17.9020 C.ar  243  TRP243      0.0015
    107  N         11.8060  -19.2070   23.8680 N.3   261  ASN261     -0.1240
    108  CA        12.9960  -20.0790   23.7490 C.3   261  ASN261      0.1653
    109  C         14.2050  -19.5920   24.5760 C.2   261  ASN261      0.2266
    110  O         14.3300  -18.3600   24.7540 O.2   261  ASN261     -0.2867
    111  CB        13.4810  -20.2370   22.2910 C.3   261  ASN261      0.1155
    112  CG        13.8340  -18.9300   21.5900 C.2   261  ASN261      0.2627
    113  OD1       12.9610  -18.0630   21.4380 O.2   261  ASN261     -0.2716
    114  ND2       15.0870  -18.7750   21.1270 N.am  261  ASN261     -0.0877
    115  N         20.7010  -20.2080   20.2240 N.3   265  TRP265     -0.1241
    116  CA        20.1640  -21.4120   19.5580 C.3   265  TRP265      0.1605
    117  C         21.1430  -22.5910   19.6520 C.2   265  TRP265      0.2264
    118  O         20.7140  -23.7760   19.5650 O.2   265  TRP265     -0.2867
    119  CB        19.7780  -21.1330   18.0820 C.3   265  TRP265      0.0550
    120  CG        18.6390  -20.1840   17.7820 C.ar  265  TRP265      0.0003
    121  CD1       18.0940  -19.2460   18.6310 C.ar  265  TRP265      0.0946
    122  CD2       17.9040  -20.0740   16.5530 C.ar  265  TRP265      0.0152
    123  NE1       17.0710  -18.5580   17.9860 N.ar  265  TRP265     -0.2442
    124  CE2       16.9270  -19.0610   16.6990 C.ar  265  TRP265      0.0810
    125  CE3       17.9750  -20.7550   15.3170 C.ar  265  TRP265      0.0012
    126  CZ2       16.0310  -18.6940   15.6920 C.ar  265  TRP265      0.0191
    127  CZ3       17.0820  -20.3800   14.3190 C.ar  265  TRP265      0.0001
    128  CH2       16.1190  -19.3720   14.4900 C.ar  265  TRP265      0.0015
    129  N         14.5860  -24.1010   18.5730 N.3   303  ASP303     -0.1239
    130  CA        13.8500  -22.8220   18.5700 C.3   303  ASP303      0.1674
    131  C         12.3300  -23.0380   18.5570 C.2   303  ASP303      0.2266
    132  O         11.6120  -22.3750   17.7630 O.2   303  ASP303     -0.2867
    133  CB        14.3090  -21.8690   17.4220 C.3   303  ASP303      0.1410
    134  CG        13.6430  -20.5150   17.4020 C.2   303  ASP303      0.3668
    135  OD1       13.3270  -20.0370   16.2610 O.co2 303  ASP303     -0.2456
    136  OD2       13.3870  -19.9000   18.4550 O.co2 303  ASP303     -0.2456
    137  N          9.8280  -21.7660   20.2030 N.3   305  ALA305     -0.1245
    138  CA         9.4330  -20.7540   21.1920 C.3   305  ALA305      0.1562
    139  C          8.0040  -20.9340   21.7250 C.2   305  ALA305      0.2260
    140  O          7.0480  -20.9120   20.9240 O.2   305  ALA305     -0.2867
    141  CB         9.5500  -19.3390   20.6120 C.3   305  ALA305      0.0290
    142  N          4.5350  -24.7230   18.9760 N.3   331  ARG331     -0.1245
    143  CA         5.5670  -24.8390   17.9280 C.3   331  ARG331      0.1563
    144  C          6.1320  -26.2630   17.7940 C.2   331  ARG331      0.2260
    145  O          6.4200  -26.7110   16.6410 O.2   331  ARG331     -0.2867
    146  CB         6.7100  -23.8120   18.1780 C.3   331  ARG331      0.0307
    147  CG         6.3920  -22.3230   17.9470 C.3   331  ARG331      0.0489
    148  CD         6.8550  -21.8010   16.6090 C.3   331  ARG331      0.2205
    149  NE         8.2710  -21.4460   16.5100 N.pl3 331  ARG331     -0.0865
    150  CZ         8.8320  -20.2580   16.8000 C.cat 331  ARG331      0.5346
    151  NH1        8.0870  -19.2760   17.2710 N.pl3 331  ARG331      0.1354
    152  NH2       10.1510  -20.0370   16.6420 N.pl3 331  ARG331      0.1354
    153  N          2.5100  -21.3330   14.5860 N.3   394  ASN394     -0.1225
    154  CA         3.2310  -20.1030   15.0140 C.3   394  ASN394      0.1785
    155  C          2.2330  -19.0950   15.6590 C.2   394  ASN394      0.2597
    156  O          1.2880  -19.5670   16.3450 O.2   394  ASN394     -0.2718
    157  CB         4.0750  -19.4980   13.8480 C.3   394  ASN394      0.1169
    158  CG         5.2430  -18.6080   14.2490 C.2   394  ASN394      0.2627
    159  OD1        5.0240  -17.4600   14.6890 O.2   394  ASN394     -0.2716
    160  ND2        6.5150  -19.0640   14.1590 N.am  394  ASN394     -0.0877
    161  N          2.3630  -17.7790   15.4750 N.am  395  GLN395     -0.1979
    162  CA         1.5910  -16.7580   16.1950 C.3   395  GLN395      0.1601
    163  C          0.1140  -16.5770   15.8410 C.2   395  GLN395      0.2287
    164  O         -0.5490  -15.6630   16.4100 O.2   395  GLN395     -0.2864
    165  CB         2.3450  -15.3760   16.0190 C.3   395  GLN395      0.0394
    166  CG         2.4720  -14.8710   14.5850 C.3   395  GLN395      0.0908
    167  CD         1.2940  -14.1010   14.0140 C.2   395  GLN395      0.2608
    168  OE1        0.6330  -14.4530   12.9790 O.2   395  GLN395     -0.2717
    169  NE2        0.9450  -12.9750   14.6650 N.am  395  GLN395     -0.0878
    170  N         -0.9770  -18.8830    8.5320 N.3   476  TRP476     -0.1241
    171  CA        -0.1780  -18.1660    9.5210 C.3   476  TRP476      0.1605
    172  C         -0.9830  -17.2390   10.4440 C.2   476  TRP476      0.2264
    173  O         -0.5140  -16.9440   11.5640 O.2   476  TRP476     -0.2867
    174  CB         0.8980  -17.3090    8.7670 C.3   476  TRP476      0.0550
    175  CG         2.1160  -16.8630    9.5580 C.ar  476  TRP476      0.0003
    176  CD1        2.3780  -15.6130   10.1080 C.ar  476  TRP476      0.0946
    177  CD2        3.2820  -17.6830    9.8830 C.ar  476  TRP476      0.0152
    178  NE1        3.6070  -15.5940   10.7640 N.ar  476  TRP476     -0.2442
    179  CE2        4.1790  -16.8690   10.6290 C.ar  476  TRP476      0.0810
    180  CE3        3.6170  -19.0340    9.5990 C.ar  476  TRP476      0.0012
    181  CZ2        5.4170  -17.3580   11.1120 C.ar  476  TRP476      0.0191
    182  CZ3        4.8540  -19.5140   10.0800 C.ar  476  TRP476      0.0001
    183  CH2        5.7470  -18.6870   10.8240 C.ar  476  TRP476      0.0015
    184  N          5.9240  -10.5930    8.2780 N.3   539  GLY539     -0.1210
    185  CA         6.3300  -11.5000    9.3380 C.3   539  GLY539      0.1956
    186  C          7.4410  -12.4570    8.8540 C.2   539  GLY539      0.2611
    187  O          8.0820  -12.1930    7.8100 O.2   539  GLY539     -0.2717
    188  N          7.6950  -13.5590    9.5760 N.am  540  TRP540     -0.1976
    189  CA         8.8080  -14.4590    9.2000 C.3   540  TRP540      0.1640
    190  C          8.6250  -15.0120    7.7680 C.2   540  TRP540      0.2290
    191  O          9.6280  -14.9810    6.9890 O.2   540  TRP540     -0.2864
    192  CB         9.0090  -15.5630   10.2780 C.3   540  TRP540      0.0576
    193  CG        10.3720  -16.2250   10.3090 C.ar  540  TRP540      0.0006
    194  CD1       11.4530  -15.9600    9.5200 C.ar  540  TRP540      0.0946
    195  CD2       10.7960  -17.2810   11.2020 C.ar  540  TRP540      0.0152
    196  NE1       12.5260  -16.7820    9.8620 N.ar  540  TRP540     -0.2442
    197  CE2       12.1520  -17.6150   10.9010 C.ar  540  TRP540      0.0810
    198  CE3       10.1670  -18.0010   12.2580 C.ar  540  TRP540      0.0012
    199  CZ2       12.8850  -18.6070   11.5750 C.ar  540  TRP540      0.0191
    200  CZ3       10.9060  -18.9870   12.9250 C.ar  540  TRP540      0.0001
    201  CH2       12.2510  -19.2830   12.5910 C.ar  540  TRP540      0.0015
@<TRIPOS>BOND
     1   191   190    2
     2   190   189    1
     3   187   186    2
     4    29    27   ar
     5    28    27   ar
     6   184   185    1
     7    27    26    1
     8   170   171    1
     9   174   171    1
    10   174   175    1
    11   186   185    1
    12   186   188   am
    13   189   188    1
    14   189   192    1
    15    26    23    1
    16   194   196   ar
    17   194   193   ar
    18   171   172    1
    19   175   177   ar
    20   175   176   ar
    21   180   177   ar
    22   180   182   ar
    23   196   197   ar
    24   177   179   ar
    25   182   183   ar
    26   176   178   ar
    27   192   193    1
    28   193   195   ar
    29    23    22    1
    30    23    24    1
    31   172   173    2
    32   179   178   ar
    33   179   181   ar
    34   183   181   ar
    35   197   195   ar
    36   197   199   ar
    37    22    18   am
    38   195   198   ar
    39     1     2    1
    40    35    34    1
    41    24    25    2
    42    19    18    2
    43    18    17    1
    44   199   201   ar
    45     9     7   ar
    46    13    12    2
    47     2     5    1
    48     2     3    1
    49     6     7    1
    50     6     5    1
    51    17    16    1
    52    17    20    1
    53   198   200   ar
    54   201   200   ar
    55    30    31    1
    56    34    31    1
    57    34    36    1
    58     7     8   ar
    59    31    32    1
    60   168   167    2
    61    16    12   am
    62    12    11    1
    63     3     4    2
    64    20    21    1
    65   157   158    1
    66   157   154    1
    67   167   166    1
    68   167   169   am
    69    21    15    1
    70   160   158   am
    71   158   159    2
    72    11    10    1
    73    11    14    1
    74   127   128   ar
    75   127   125   ar
    76    32    33    2
    77   128   126   ar
    78   166   165    1
    79   153   154    1
    80   154   155    1
    81    14    15    1
    82   125   122   ar
    83   161   155   am
    84   161   162    1
    85   155   156    2
    86   126   124   ar
    87   163   162    1
    88   163   164    2
    89   165   162    1
    90    47    45    1
    91   135   134   ar
    92   149   148    1
    93   149   150    2
    94   122   124   ar
    95   122   120   ar
    96   148   147    1
    97   145   144    2
    98   152   150    1
    99   124   123   ar
   100   150   151    1
   101    44    45    2
   102    44    43    1
   103    37    38    1
   104    42    43    1
   105    42    41    1
   106    38    39    1
   107    38    41    1
   108    45    46    1
   109    82    81    1
   110    82    83    1
   111    61    59    1
   112   134   133    1
   113   134   136   ar
   114   133   130    1
   115    39    40    2
   116   132   131    2
   117   120   119    1
   118   120   121   ar
   119   144   143    1
   120   106   105   ar
   121   106   104   ar
   122   143   146    1
   123   143   142    1
   124    81    78    1
   125   147   146    1
   126   105   103   ar
   127   123   121   ar
   128    85    83   ar
   129    59    60    1
   130    59    56    1
   131   119   116    1
   132    83    84   ar
   133   131   130    1
   134   130   129    1
   135    58    57    2
   136    80    79    2
   137   104   102   ar
   138   103   100   ar
   139    56    57    1
   140    56    55    1
   141    54    52    1
   142    78    79    1
   143    78    77    1
   144   116   117    1
   145   116   115    1
   146   118   117    2
   147    53    52    1
   148    52    49    1
   149   102   100   ar
   150   102   101   ar
   151   100    98   ar
   152   137   138    1
   153    77    74   am
   154   141   138    1
   155   140   139    2
   156    96    95    2
   157   101    99   ar
   158   114   112   am
   159    67    66    1
   160    98    97    1
   161    98    99   ar
   162   138   139    1
   163    66    63    1
   164    49    50    1
   165    49    48    1
   166   113   112    2
   167   112   111    1
   168    74    75    2
   169    74    73    1
   170    97    94    1
   171    50    51    2
   172    69    68    1
   173    69    70    1
   174    95    94    1
   175    68    64   am
   176    70    72   am
   177    70    71    2
   178   111   108    1
   179    72    73    1
   180    94    93    1
   181    64    63    1
   182    64    65    2
   183    73    76    1
   184    63    62    1
   185   108   107    1
   186   108   109    1
   187    91    90    1
   188   109   110    2
   189    90    92    1
   190    90    87    1
   191    89    88    2
   192    88    87    1
   193    87    86    1
