@<TRIPOS>MOLECULE
tmp/1w6uA01.pdb
 201 191 0 0 0
SMALL
GASTEIGER

@<TRIPOS>ATOM
      1  N         26.0080    8.6600   30.9420 N.3    57  ARG57      -0.1231
      2  CA        26.2620    8.2620   32.3330 C.3    57  ARG57       0.1694
      3  C         27.3210    9.1000   33.0560 C.2    57  ARG57       0.2591
      4  O         27.1970    9.3510   34.2560 O.2    57  ARG57      -0.2718
      5  CB        26.6970    6.7980   32.4110 C.3    57  ARG57       0.0321
      6  CG        25.6860    5.7700   31.9240 C.3    57  ARG57       0.0489
      7  CD        26.2870    4.3800   31.7410 C.3    57  ARG57       0.2205
      8  NE        27.3880    4.3720   30.7740 N.pl3  57  ARG57      -0.0865
      9  CZ        28.3660    3.4690   30.7410 C.cat  57  ARG57       0.5346
     10  NH1       28.4020    2.4800   31.6240 N.pl3  57  ARG57       0.1354
     11  NH2       29.3140    3.5520   29.8170 N.pl3  57  ARG57       0.1354
     12  N         28.3670    9.5040   32.3370 N.am   58  LYS58      -0.1980
     13  CA        29.5350   10.1470   32.9460 C.3    58  LYS58       0.1596
     14  C         29.4570   11.6750   32.9250 C.2    58  LYS58       0.2287
     15  O         29.8340   12.3150   31.9350 O.2    58  LYS58      -0.2864
     16  CB        30.8280    9.6700   32.2750 C.3    58  LYS58       0.0298
     17  CG        31.1800    8.2220   32.5470 C.3    58  LYS58       0.0038
     18  CD        32.2090    7.7280   31.5490 C.3    58  LYS58       0.0206
     19  CE        32.5430    6.2630   31.7780 C.3    58  LYS58       0.1093
     20  NZ        31.6190    5.3630   31.0430 N.3    58  LYS58      -0.1314
     21  N         19.1380    3.0250   29.9960 N.3    85  ARG85      -0.1245
     22  CA        18.4480    1.7730   30.3200 C.3    85  ARG85       0.1563
     23  C         17.5460    1.8760   31.5530 C.2    85  ARG85       0.2260
     24  O         16.8260    0.9400   31.8810 O.2    85  ARG85      -0.2867
     25  CB        19.4150    0.5790   30.3920 C.3    85  ARG85       0.0307
     26  CG        20.3460    0.5400   31.5640 C.3    85  ARG85       0.0489
     27  CD        21.6800   -0.1100   31.2240 C.3    85  ARG85       0.2205
     28  NE        22.7800    0.5770   31.8860 N.pl3  85  ARG85      -0.0865
     29  CZ        23.7820   -0.0220   32.5220 C.cat  85  ARG85       0.5346
     30  NH1       23.8500   -1.3460   32.5860 N.pl3  85  ARG85       0.1354
     31  NH2       24.7260    0.7160   33.0970 N.pl3  85  ARG85       0.1354
     32  N         25.3350    3.8680   22.7970 N.3   112  ALA112     -0.1231
     33  CA        25.4020    2.4310   22.5520 C.3   112  ALA112      0.1694
     34  C         26.4650    1.7620   23.4070 C.2   112  ALA112      0.2593
     35  O         27.2770    2.4300   24.0350 O.2   112  ALA112     -0.2718
     36  CB        25.6520    2.1380   21.0590 C.3   112  ALA112      0.0304
     37  N         26.4110    0.4370   23.4430 N.am  113  GLY113     -0.1942
     38  CA        27.4650   -0.3880   23.9970 C.3   113  GLY113      0.2014
     39  C         27.6880   -1.5510   23.0520 C.2   113  GLY113      0.2639
     40  O         26.7810   -1.9390   22.3130 O.2   113  GLY113     -0.2714
     41  N         28.8910   -2.1110   23.0680 N.am  114  ASN114     -0.1958
     42  CA        29.1860   -3.2860   22.2550 C.3   114  ASN114      0.1819
     43  C         30.2830   -4.1470   22.8630 C.2   114  ASN114      0.2621
     44  O         31.1400   -3.6520   23.5990 O.2   114  ASN114     -0.2715
     45  CB        29.5710   -2.8680   20.8280 C.3   114  ASN114      0.1195
     46  CG        29.4750   -4.0070   19.8190 C.2   114  ASN114      0.2630
     47  OD1       28.8750   -5.0520   20.0760 O.2   114  ASN114     -0.2716
     48  ND2       30.0760   -3.8000   18.6520 N.am  114  ASN114     -0.0877
     49  N         30.2090   -5.4430   22.5790 N.am  115  PHE115     -0.1960
     50  CA        31.2960   -6.3700   22.8350 C.3   115  PHE115      0.1771
     51  C         31.6200   -7.0220   21.5060 C.2   115  PHE115      0.2619
     52  O         30.7150   -7.3550   20.7390 O.2   115  PHE115     -0.2715
     53  CB        30.8820   -7.4730   23.8260 C.3   115  PHE115      0.0574
     54  CG        30.3780   -6.9700   25.1530 C.ar  115  PHE115     -0.0200
     55  CD1       29.1240   -7.3690   25.6220 C.ar  115  PHE115     -0.0042
     56  CD2       31.1530   -6.1300   25.9490 C.ar  115  PHE115     -0.0042
     57  CE1       28.6430   -6.9280   26.8520 C.ar  115  PHE115     -0.0003
     58  CE2       30.6800   -5.6810   27.1860 C.ar  115  PHE115     -0.0003
     59  CZ        29.4150   -6.0790   27.6350 C.ar  115  PHE115     -0.0000
     60  N         32.9030   -7.1930   21.2150 N.am  116  ILE116     -0.1963
     61  CA        33.2920   -8.1040   20.1460 C.3   116  ILE116      0.1727
     62  C         33.8280   -9.3700   20.7960 C.2   116  ILE116      0.2616
     63  O         34.8610   -9.3510   21.4770 O.2   116  ILE116     -0.2715
     64  CB        34.3180   -7.4860   19.1710 C.3   116  ILE116      0.0290
     65  CG1       33.8590   -6.1040   18.6910 C.3   116  ILE116      0.0022
     66  CG2       34.5020   -8.4030   17.9730 C.3   116  ILE116      0.0023
     67  CD1       35.0100   -5.1920   18.2550 C.3   116  ILE116      0.0001
     68  N         33.1010  -10.4620   20.5910 N.am  117  SER117     -0.1950
     69  CA        33.3660  -11.7140   21.2740 C.3   117  SER117      0.1924
     70  C         32.6360  -12.8390   20.5710 C.2   117  SER117      0.2314
     71  O         31.5430  -12.6270   20.0390 O.2   117  SER117     -0.2863
     72  CB        32.8840  -11.6260   22.7320 C.3   117  SER117      0.2116
     73  OG        32.7840  -12.9070   23.3340 O.3   117  SER117     -0.2180
     74  N         30.9820  -17.2600   24.4420 N.3   121  ARG121     -0.1231
     75  CA        31.6800  -16.7440   25.6130 C.3   121  ARG121      0.1694
     76  C         30.8830  -15.6760   26.3630 C.2   121  ARG121      0.2592
     77  O         31.3310  -15.1740   27.3930 O.2   121  ARG121     -0.2718
     78  CB        33.0850  -16.2390   25.2420 C.3   121  ARG121      0.0321
     79  CG        33.8030  -17.1060   24.2130 C.3   121  ARG121      0.0489
     80  CD        34.9980  -17.8740   24.7360 C.3   121  ARG121      0.2205
     81  NE        36.1900  -17.0370   24.8190 N.pl3 121  ARG121     -0.0865
     82  CZ        37.4080  -17.4010   24.4240 C.cat 121  ARG121      0.5346
     83  NH1       37.6210  -18.5950   23.8890 N.pl3 121  ARG121      0.1354
     84  NH2       38.4170  -16.5560   24.5570 N.pl3 121  ARG121      0.1354
     85  N         29.6950  -15.3440   25.8540 N.am  122  LEU122     -0.1966
     86  CA        28.8330  -14.3350   26.4720 C.3   122  LEU122      0.1728
     87  C         27.9410  -14.9310   27.5560 C.2   122  LEU122      0.2616
     88  O         27.3450  -15.9900   27.3690 O.2   122  LEU122     -0.2715
     89  CB        27.9440  -13.6570   25.4130 C.3   122  LEU122      0.0311
     90  CG        28.6090  -12.9090   24.2520 C.3   122  LEU122      0.0022
     91  CD1       27.5730  -12.5630   23.1960 C.3   122  LEU122      0.0001
     92  CD2       29.3260  -11.6530   24.7210 C.3   122  LEU122      0.0001
     93  N         27.8520  -14.2400   28.6870 N.am  123  SER123     -0.1950
     94  CA        26.8600  -14.5630   29.7060 C.3   123  SER123      0.1924
     95  C         25.5080  -13.9650   29.3070 C.2   123  SER123      0.2314
     96  O         25.4660  -13.0320   28.4920 O.2   123  SER123     -0.2863
     97  CB        27.3000  -14.0170   31.0660 C.3   123  SER123      0.2116
     98  OG        27.3850  -12.6010   31.0480 O.3   123  SER123     -0.2180
     99  N         23.8760  -12.0310   31.1640 N.3   125  ASN125     -0.1225
    100  CA        24.0090  -10.6420   31.6050 C.3   125  ASN125      0.1785
    101  C         24.7510   -9.7370   30.6080 C.2   125  ASN125      0.2597
    102  O         24.4250   -8.5550   30.4820 O.2   125  ASN125     -0.2718
    103  CB        24.6860  -10.5650   32.9770 C.3   125  ASN125      0.1169
    104  CG        24.4520   -9.2350   33.6670 C.2   125  ASN125      0.2627
    105  OD1       23.3650   -8.9740   34.1820 O.2   125  ASN125     -0.2716
    106  ND2       25.4680   -8.3820   33.6670 N.am  125  ASN125     -0.0877
    107  N         25.7620  -10.2810   29.9330 N.am  126  ALA126     -0.1979
    108  CA        26.4800   -9.5310   28.9030 C.3   126  ALA126      0.1597
    109  C         25.5520   -9.2470   27.7160 C.2   126  ALA126      0.2287
    110  O         25.5340   -8.1290   27.1940 O.2   126  ALA126     -0.2864
    111  CB        27.7190  -10.2800   28.4520 C.3   126  ALA126      0.0319
    112  N         22.8720   -6.6760   28.8080 N.3   129  THR129     -0.1203
    113  CA        23.4600   -5.3400   28.9320 C.3   129  THR129      0.1994
    114  C         23.3730   -4.5580   27.6110 C.2   129  THR129      0.2617
    115  O         22.9790   -3.3880   27.6000 O.2   129  THR129     -0.2717
    116  CB        24.9260   -5.4360   29.4370 C.3   129  THR129      0.1784
    117  OG1       24.9200   -5.7250   30.8390 O.3   129  THR129     -0.2211
    118  CG2       25.6370   -4.0870   29.3860 C.3   129  THR129      0.0376
    119  N         23.7280   -5.2180   26.5110 N.am  130  ILE130     -0.1979
    120  CA        23.7280   -4.5800   25.1960 C.3   130  ILE130      0.1595
    121  C         22.3050   -4.2710   24.7390 C.2   130  ILE130      0.2287
    122  O         22.0280   -3.1480   24.3150 O.2   130  ILE130     -0.2864
    123  CB        24.5040   -5.4280   24.1460 C.3   130  ILE130      0.0276
    124  CG1       25.9450   -5.7070   24.6070 C.3   130  ILE130      0.0022
    125  CG2       24.4790   -4.7630   22.7570 C.3   130  ILE130      0.0022
    126  CD1       26.7920   -4.4700   24.8910 C.3   130  ILE130      0.0001
    127  N         21.0490   -1.2270   26.7460 N.3   133  ILE133     -0.1245
    128  CA        21.5720    0.0840   26.3400 C.3   133  ILE133      0.1561
    129  C         20.9870    0.5160   24.9970 C.2   133  ILE133      0.2260
    130  O         20.4740    1.6360   24.8650 O.2   133  ILE133     -0.2867
    131  CB        23.1190    0.0840   26.2420 C.3   133  ILE133      0.0252
    132  CG1       23.7610   -0.2150   27.5980 C.3   133  ILE133      0.0019
    133  CG2       23.6250    1.4400   25.7180 C.3   133  ILE133      0.0019
    134  CD1       25.1690   -0.7830   27.4660 C.3   133  ILE133      0.0001
    135  N         24.0810    0.5350   12.5510 N.3   163  THR163     -0.1218
    136  CA        25.2870   -0.0810   11.9950 C.3   163  THR163      0.1862
    137  C         24.9100   -0.7720   10.6970 C.2   163  THR163      0.2287
    138  O         23.7390   -1.1510   10.5060 O.2   163  THR163     -0.2866
    139  CB        25.8620   -1.2080   12.9340 C.3   163  THR163      0.1770
    140  OG1       25.0500   -2.3880   12.8190 O.3   163  THR163     -0.2211
    141  CG2       25.7790   -0.8750   14.4260 C.3   163  THR163      0.0375
    142  N         25.7170   -3.7350   10.0130 N.3   165  TYR165     -0.1241
    143  CA        25.3590   -5.1090   10.3580 C.3   165  TYR165      0.1605
    144  C         23.9790   -5.2690   11.0120 C.2   165  TYR165      0.2264
    145  O         23.5590   -6.3850   11.2850 O.2   165  TYR165     -0.2867
    146  CB        26.4680   -5.8310   11.1610 C.3   165  TYR165      0.0534
    147  CG        26.8060   -5.2440   12.5130 C.ar  165  TYR165     -0.0201
    148  CD1       25.9820   -5.4610   13.6210 C.ar  165  TYR165     -0.0009
    149  CD2       27.9710   -4.4960   12.6950 C.ar  165  TYR165     -0.0009
    150  CE1       26.2930   -4.9230   14.8730 C.ar  165  TYR165      0.0417
    151  CE2       28.2870   -3.9450   13.9430 C.ar  165  TYR165      0.0417
    152  CZ        27.4490   -4.1720   15.0310 C.ar  165  TYR165      0.1957
    153  OH        27.7430   -3.6560   16.2740 O.3   165  TYR165     -0.2866
    154  N         29.2540   -9.9600   17.0250 N.3   173  VAL173     -0.1245
    155  CA        28.6060   -8.7540   17.5580 C.3   173  VAL173      0.1561
    156  C         27.0880   -8.9760   17.6690 C.2   173  VAL173      0.2260
    157  O         26.2890   -8.0650   17.4210 O.2   173  VAL173     -0.2867
    158  CB        28.9420   -7.4690   16.7220 C.3   173  VAL173      0.0252
    159  CG1       30.3550   -6.9550   17.0430 C.3   173  VAL173      0.0019
    160  CG2       28.7960   -7.7140   15.2250 C.3   173  VAL173      0.0019
    161  N         24.5810   -6.8400   19.8350 N.3   176  SER176     -0.1217
    162  CA        24.5250   -5.5620   19.1340 C.3   176  SER176      0.1889
    163  C         23.7210   -5.6380   17.8350 C.2   176  SER176      0.2288
    164  O         22.8470   -4.8000   17.6070 O.2   176  SER176     -0.2866
    165  CB        25.9310   -5.0330   18.8690 C.3   176  SER176      0.2089
    166  OG        25.8980   -3.7890   18.1920 O.3   176  SER176     -0.2183
    167  N         20.4300   -3.4520   17.5260 N.3   180  LYS180     -0.1245
    168  CA        20.4360   -2.4250   16.4750 C.3   180  LYS180      0.1561
    169  C         19.3560   -2.6730   15.4190 C.2   180  LYS180      0.2260
    170  O         18.7680   -1.7260   14.9080 O.2   180  LYS180     -0.2867
    171  CB        21.7970   -2.3120   15.8060 C.3   180  LYS180      0.0271
    172  CG        22.8530   -1.7240   16.7090 C.3   180  LYS180      0.0035
    173  CD        22.7180   -0.2160   16.8420 C.3   180  LYS180      0.0206
    174  CE        23.9520    0.3560   17.5150 C.3   180  LYS180      0.1093
    175  NZ        23.8560    1.8030   17.7750 N.3   180  LYS180     -0.1314
    176  N         26.2780    3.5140    9.9130 N.3   206  PRO206     -0.2102
    177  CA        27.6950    3.7980    9.6840 C.3   206  PRO206      0.1504
    178  C         28.5490    2.5520    9.5360 C.2   206  PRO206      0.2576
    179  O         28.3120    1.5300   10.2020 O.2   206  PRO206     -0.2718
    180  CB        28.1110    4.5560   10.9540 C.3   206  PRO206      0.0282
    181  CG        26.8020    4.9310   11.6110 C.3   206  PRO206      0.0208
    182  CD        25.9100    3.7440   11.3210 C.3   206  PRO206      0.0893
    183  N         29.5250    2.6470    8.6370 N.am  207  GLY207     -0.1943
    184  CA        30.6580    1.7420    8.6230 C.3   207  GLY207      0.1998
    185  C         31.6920    2.3330    9.5670 C.2   207  GLY207      0.2480
    186  O         31.3720    3.2290   10.3460 O.2   207  GLY207     -0.2729
    187  N         32.9290    1.8520    9.5080 N.am  208  PRO208     -0.2726
    188  CA        33.9730    2.3160   10.4340 C.3   208  PRO208      0.1402
    189  C         34.3660    3.7790   10.2220 C.2   208  PRO208      0.2269
    190  O         34.7320    4.1930    9.1100 O.2   208  PRO208     -0.2865
    191  CB        35.1450    1.3680   10.1470 C.3   208  PRO208      0.0296
    192  CG        34.9260    0.9050    8.7430 C.3   208  PRO208      0.0237
    193  CD        33.4280    0.8230    8.5770 C.3   208  PRO208      0.0939
    194  N         41.1970   -3.1190    6.9480 N.3   222  MET222     -0.1245
    195  CA        39.8110   -2.6520    6.9170 C.3   222  MET222      0.1570
    196  C         39.5210   -1.8620    5.6460 C.2   222  MET222      0.2261
    197  O         38.4530   -2.0020    5.0520 O.2   222  MET222     -0.2867
    198  CB        39.5070   -1.7810    8.1360 C.3   222  MET222      0.0387
    199  CG        39.2420   -2.5580    9.4090 C.3   222  MET222      0.0595
    200  SD        38.6900   -1.4860   10.7460 S.3   222  MET222     -0.1393
    201  CE        36.9320   -1.8470   10.7320 C.3   222  MET222      0.0692
@<TRIPOS>BOND
     1   197   196    2
     2   196   195    1
     3   195   194    1
     4   195   198    1
     5   198   199    1
     6   193   192    1
     7   193   187    1
     8   184   183    1
     9   184   185    1
    10   183   178   am
    11   192   191    1
    12   190   189    2
    13   199   200    1
    14   187   185   am
    15   187   188    1
    16   178   177    1
    17   178   179    2
    18   185   186    2
    19   177   176    1
    20   177   180    1
    21   176   182    1
    22   142   143    1
    23   191   188    1
    24   189   188    1
    25   143   144    1
    26   143   146    1
    27   138   137    2
    28   137   136    1
    29   201   200    1
    30   180   181    1
    31   144   145    2
    32   146   147    1
    33   182   181    1
    34   136   135    1
    35   136   139    1
    36   147   149   ar
    37   147   148   ar
    38   149   151   ar
    39   140   139    1
    40   139   141    1
    41   148   150   ar
    42   151   152   ar
    43   150   152   ar
    44   170   169    2
    45   152   153    1
    46   160   158    1
    47   169   168    1
    48   171   168    1
    49   171   172    1
    50   168   167    1
    51   172   173    1
    52   158   159    1
    53   158   155    1
    54   173   174    1
    55   154   155    1
    56   157   156    2
    57   174   175    1
    58   155   156    1
    59   164   163    2
    60   163   162    1
    61    66    64    1
    62   166   165    1
    63    67    65    1
    64    48    46   am
    65    65    64    1
    66   165   162    1
    67   162   161    1
    68    64    61    1
    69    46    47    2
    70    46    45    1
    71    71    70    2
    72    61    62    1
    73    61    60    1
    74    70    69    1
    75    68    62   am
    76    68    69    1
    77    52    51    2
    78    62    63    2
    79    45    42    1
    80    36    33    1
    81    60    51   am
    82    69    72    1
    83    51    50    1
    84    42    43    1
    85    42    41    1
    86    40    39    2
    87    33    32    1
    88    33    34    1
    89    49    50    1
    90    49    43   am
    91    72    73    1
    92   125   123    1
    93    50    53    1
    94    43    44    2
    95    39    41   am
    96    39    38    1
    97    91    90    1
    98    34    37   am
    99    34    35    2
   100    37    38    1
   101    53    54    1
   102    83    82    1
   103   123   124    1
   104   123   120    1
   105    79    80    1
   106    79    78    1
   107    90    92    1
   108    90    89    1
   109   122   121    2
   110    82    84    1
   111    82    81    2
   112    74    75    1
   113   124   126    1
   114    80    81    1
   115   121   120    1
   116   130   129    2
   117   129   128    1
   118    54    55   ar
   119    54    56   ar
   120   120   119    1
   121    78    75    1
   122    89    86    1
   123    75    76    1
   124    55    57   ar
   125   133   131    1
   126    85    76   am
   127    85    86    1
   128    56    58   ar
   129   131   128    1
   130   131   132    1
   131   128   127    1
   132    76    77    2
   133    86    87    1
   134   119   114   am
   135    57    59   ar
   136    58    59   ar
   137   110   109    2
   138    88    87    2
   139   134   132    1
   140    87    93   am
   141   115   114    2
   142   114   113    1
   143   109   108    1
   144   111   108    1
   145    96    95    2
   146    93    94    1
   147   112   113    1
   148   108   107    1
   149   113   116    1
   150    95    94    1
   151   118   116    1
   152   116   117    1
   153    94    97    1
   154    11     9    1
   155   107   101   am
   156    21    22    1
   157    22    25    1
   158    22    23    1
   159    25    26    1
   160   102   101    2
   161   101   100    1
   162     9     8    2
   163     9    10    1
   164     8     7    1
   165     1     2    1
   166    20    19    1
   167    98    97    1
   168    99   100    1
   169    27    26    1
   170    27    28    1
   171    18    19    1
   172    18    17    1
   173    23    24    2
   174   100   103    1
   175     7     6    1
   176    28    29    2
   177     6     5    1
   178    15    14    2
   179    16    17    1
   180    16    13    1
   181     2     5    1
   182     2     3    1
   183    12    13    1
   184    12     3   am
   185    29    30    1
   186    29    31    1
   187    14    13    1
   188   103   104    1
   189     3     4    2
   190   104   106   am
   191   104   105    2
