@<TRIPOS>MOLECULE
tmp/1w6uA00.pdb
 115 108 0 0 0
SMALL
GASTEIGER

@<TRIPOS>ATOM
      1  N         24.6180   10.1280   24.3480 N.3    32  GLY32      -0.1225
      2  CA        26.0100    9.8820   24.0100 C.3    32  GLY32       0.1811
      3  C         26.7050   11.0940   23.3970 C.2    32  GLY32       0.2280
      4  O         27.7470   10.9590   22.7530 O.2    32  GLY32      -0.2866
      5  N         28.5080   13.3570   24.5220 N.3    34  GLY34      -0.1210
      6  CA        29.7550   13.7960   25.1300 C.3    34  GLY34       0.1956
      7  C         31.0190   13.2920   24.4640 C.2    34  GLY34       0.2612
      8  O         32.0990   13.8410   24.6890 O.2    34  GLY34      -0.2717
      9  N         30.8980   12.2530   23.6400 N.am   35  THR35      -0.1952
     10  CA        32.0610   11.5930   23.0410 C.3    35  THR35       0.1897
     11  C         31.8260   11.2540   21.5720 C.2    35  THR35       0.2313
     12  O         30.6810   11.1980   21.1240 O.2    35  THR35      -0.2863
     13  CB        32.3630   10.2690   23.7750 C.3    35  THR35       0.1794
     14  OG1       31.3000    9.3420   23.5230 O.3    35  THR35      -0.2208
     15  CG2       32.3480   10.4400   25.3040 C.3    35  THR35       0.0378
     16  N         23.2120   13.8860   26.8560 N.3    55  ALA55      -0.1231
     17  CA        22.9520   12.9880   27.9820 C.3    55  ALA55       0.1694
     18  C         23.7140   11.6670   27.8920 C.2    55  ALA55       0.2593
     19  O         23.7640   11.0260   26.8430 O.2    55  ALA55      -0.2718
     20  CB        21.4440   12.7360   28.1350 C.3    55  ALA55       0.0304
     21  N         24.2980   11.2690   29.0160 N.am   56  SER56      -0.1938
     22  CA        25.0230   10.0040   29.1460 C.3    56  SER56       0.2055
     23  C         25.3720    9.7870   30.6260 C.2    56  SER56       0.2643
     24  O         25.0440   10.6310   31.4600 O.2    56  SER56      -0.2714
     25  CB        26.2580    9.9670   28.2390 C.3    56  SER56       0.2130
     26  OG        27.3840   10.6030   28.8220 O.3    56  SER56      -0.2179
     27  N         26.0080    8.6600   30.9420 N.am   57  ARG57      -0.1963
     28  CA        26.2620    8.2620   32.3330 C.3    57  ARG57       0.1729
     29  C         27.3210    9.1000   33.0560 C.2    57  ARG57       0.2616
     30  O         27.1970    9.3510   34.2560 O.2    57  ARG57      -0.2715
     31  CB        26.6970    6.7980   32.4110 C.3    57  ARG57       0.0348
     32  CG        25.6860    5.7700   31.9240 C.3    57  ARG57       0.0492
     33  CD        26.2870    4.3800   31.7410 C.3    57  ARG57       0.2205
     34  NE        27.3880    4.3720   30.7740 N.pl3  57  ARG57      -0.0865
     35  CZ        28.3660    3.4690   30.7410 C.cat  57  ARG57       0.5346
     36  NH1       28.4020    2.4800   31.6240 N.pl3  57  ARG57       0.1354
     37  NH2       29.3140    3.5520   29.8170 N.pl3  57  ARG57       0.1354
     38  N         28.3670    9.5040   32.3370 N.am   58  LYS58      -0.1977
     39  CA        29.5350   10.1470   32.9460 C.3    58  LYS58       0.1596
     40  C         29.4570   11.6750   32.9250 C.2    58  LYS58       0.2287
     41  O         29.8340   12.3150   31.9350 O.2    58  LYS58      -0.2864
     42  CB        30.8280    9.6700   32.2750 C.3    58  LYS58       0.0298
     43  CG        31.1800    8.2220   32.5470 C.3    58  LYS58       0.0038
     44  CD        32.2090    7.7280   31.5490 C.3    58  LYS58       0.0206
     45  CE        32.5430    6.2630   31.7780 C.3    58  LYS58       0.1093
     46  NZ        31.6190    5.3630   31.0430 N.3    58  LYS58      -0.1314
     47  N         32.7440   14.0090   31.9160 N.3    61  VAL61      -0.1245
     48  CA        33.0350   14.0950   30.4830 C.3    61  VAL61       0.1561
     49  C         31.9530   14.8950   29.7530 C.2    61  VAL61       0.2260
     50  O         32.2530   15.7320   28.8980 O.2    61  VAL61      -0.2867
     51  CB        33.1890   12.6870   29.8530 C.3    61  VAL61       0.0252
     52  CG1       33.3530   12.7700   28.3290 C.3    61  VAL61       0.0019
     53  CG2       34.3720   11.9560   30.4720 C.3    61  VAL61       0.0019
     54  N         22.4100   10.7360   32.5790 N.3    82  CYS82      -0.1221
     55  CA        21.3320    9.7890   32.3010 C.3    82  CYS82       0.1808
     56  C         21.8580    8.4440   31.8230 C.2    82  CYS82       0.2601
     57  O         22.6550    8.3740   30.8900 O.2    82  CYS82      -0.2717
     58  CB        20.3520   10.3580   31.2650 C.3    82  CYS82       0.0970
     59  SG        18.8690    9.3530   31.0350 S.3    82  CYS82      -0.0800
     60  N         21.4120    7.3850   32.4890 N.am   83  ASP83      -0.1959
     61  CA        21.5940    6.0210   32.0160 C.3    83  ASP83       0.1840
     62  C         20.3140    5.6730   31.2740 C.2    83  ASP83       0.2622
     63  O         19.2570    5.5780   31.8880 O.2    83  ASP83      -0.2715
     64  CB        21.7870    5.0680   33.1980 C.3    83  ASP83       0.1450
     65  CG        22.2630    3.6900   32.7710 C.2    83  ASP83       0.3671
     66  OD1       21.8650    3.2210   31.6810 O.co2  83  ASP83      -0.2456
     67  OD2       23.0420    2.9940   33.4620 O.co2  83  ASP83      -0.2456
     68  N         20.4060    5.4990   29.9550 N.am   84  VAL84      -0.1963
     69  CA        19.2100    5.3150   29.1250 C.3    84  VAL84       0.1727
     70  C         18.4770    3.9920   29.3690 C.2    84  VAL84       0.2616
     71  O         17.3150    3.8550   29.0060 O.2    84  VAL84      -0.2715
     72  CB        19.4910    5.5210   27.6080 C.3    84  VAL84       0.0290
     73  CG1       19.9260    6.9700   27.3370 C.3    84  VAL84       0.0023
     74  CG2       20.5200    4.5210   27.0950 C.3    84  VAL84       0.0023
     75  N         19.1380    3.0250   29.9960 N.am   85  ARG85      -0.1977
     76  CA        18.4480    1.7730   30.3200 C.3    85  ARG85       0.1597
     77  C         17.5460    1.8760   31.5530 C.2    85  ARG85       0.2287
     78  O         16.8260    0.9400   31.8810 O.2    85  ARG85      -0.2864
     79  CB        19.4150    0.5790   30.3920 C.3    85  ARG85       0.0334
     80  CG        20.3460    0.5400   31.5640 C.3    85  ARG85       0.0492
     81  CD        21.6800   -0.1100   31.2240 C.3    85  ARG85       0.2205
     82  NE        22.7800    0.5770   31.8860 N.pl3  85  ARG85      -0.0865
     83  CZ        23.7820   -0.0220   32.5220 C.cat  85  ARG85       0.5346
     84  NH1       23.8500   -1.3460   32.5860 N.pl3  85  ARG85       0.1354
     85  NH2       24.7260    0.7160   33.0970 N.pl3  85  ARG85       0.1354
     86  N         21.8960    8.0040   19.9450 N.3   110  ASN110     -0.1225
     87  CA        23.2460    7.6790   19.5250 C.3   110  ASN110      0.1785
     88  C         23.9940    6.8000   20.5430 C.2   110  ASN110      0.2597
     89  O         24.9050    6.0620   20.1690 O.2   110  ASN110     -0.2718
     90  CB        23.9850    8.9950   19.2010 C.3   110  ASN110      0.1169
     91  CG        25.4890    8.8490   19.1710 C.2   110  ASN110      0.2627
     92  OD1       26.0780    8.5600   18.1250 O.2   110  ASN110     -0.2716
     93  ND2       26.1260    9.0640   20.3240 N.am  110  ASN110     -0.0877
     94  N         23.5860    6.8500   21.8150 N.am  111  ALA111     -0.1966
     95  CA        24.2440    6.0470   22.8680 C.3   111  ALA111      0.1728
     96  C         24.2220    4.5520   22.5520 C.2   111  ALA111      0.2616
     97  O         23.2190    4.0240   22.0790 O.2   111  ALA111     -0.2715
     98  CB        23.6080    6.3100   24.2300 C.3   111  ALA111      0.0334
     99  N         25.3350    3.8680   22.7970 N.am  112  ALA112     -0.1963
    100  CA        25.4020    2.4310   22.5520 C.3   112  ALA112      0.1728
    101  C         26.4650    1.7620   23.4070 C.2   112  ALA112      0.2616
    102  O         27.2770    2.4300   24.0350 O.2   112  ALA112     -0.2715
    103  CB        25.6520    2.1380   21.0590 C.3   112  ALA112      0.0334
    104  N         26.4110    0.4370   23.4430 N.am  113  GLY113     -0.1955
    105  CA        27.4650   -0.3880   23.9970 C.3   113  GLY113      0.1869
    106  C         27.6880   -1.5510   23.0520 C.2   113  GLY113      0.2309
    107  O         26.7810   -1.9390   22.3130 O.2   113  GLY113     -0.2863
    108  N         21.0490   -1.2270   26.7460 N.3   133  ILE133     -0.1245
    109  CA        21.5720    0.0840   26.3400 C.3   133  ILE133      0.1561
    110  C         20.9870    0.5160   24.9970 C.2   133  ILE133      0.2260
    111  O         20.4740    1.6360   24.8650 O.2   133  ILE133     -0.2867
    112  CB        23.1190    0.0840   26.2420 C.3   133  ILE133      0.0252
    113  CG1       23.7610   -0.2150   27.5980 C.3   133  ILE133      0.0019
    114  CG2       23.6250    1.4400   25.7180 C.3   133  ILE133      0.0019
    115  CD1       25.1690   -0.7830   27.4660 C.3   133  ILE133      0.0001
@<TRIPOS>BOND
     1    92    91    2
     2    91    90    1
     3    91    93   am
     4    90    87    1
     5    87    86    1
     6    87    88    1
     7    89    88    2
     8    88    94   am
     9   103   100    1
    10    12    11    2
    11    11    10    1
    12    94    95    1
    13    97    96    2
    14   107   106    2
    15   100    99    1
    16   100   101    1
    17    96    99   am
    18    96    95    1
    19     4     3    2
    20    95    98    1
    21    10     9    1
    22    10    13    1
    23   106   105    1
    24     3     2    1
    25   101   104   am
    26   101   102    2
    27   104   105    1
    28    14    13    1
    29     9     7   am
    30    13    15    1
    31     2     1    1
    32     7     8    2
    33     7     6    1
    34     5     6    1
    35   111   110    2
    36   110   109    1
    37   114   112    1
    38   112   109    1
    39   112   113    1
    40   109   108    1
    41    19    18    2
    42    16    17    1
    43    74    72    1
    44    73    72    1
    45   115   113    1
    46    72    69    1
    47    18    17    1
    48    18    21   am
    49    17    20    1
    50    25    26    1
    51    25    22    1
    52    52    51    1
    53    50    49    2
    54    71    70    2
    55    21    22    1
    56    69    70    1
    57    69    68    1
    58    22    23    1
    59    70    75   am
    60    49    48    1
    61    37    35    1
    62    51    53    1
    63    51    48    1
    64    68    62   am
    65    75    76    1
    66    76    79    1
    67    76    77    1
    68    79    80    1
    69    48    47    1
    70    23    27   am
    71    23    24    2
    72    35    34    2
    73    35    36    1
    74    34    33    1
    75    57    56    2
    76    27    28    1
    77    59    58    1
    78    46    45    1
    79    81    80    1
    80    81    82    1
    81    58    55    1
    82    62    63    2
    83    62    61    1
    84    44    45    1
    85    44    43    1
    86    77    78    2
    87    66    65   ar
    88    33    32    1
    89    56    55    1
    90    56    60   am
    91    82    83    2
    92    32    31    1
    93    41    40    2
    94    61    60    1
    95    61    64    1
    96    42    43    1
    97    42    39    1
    98    55    54    1
    99    28    31    1
   100    28    29    1
   101    38    39    1
   102    38    29   am
   103    83    84    1
   104    83    85    1
   105    65    64    1
   106    65    67   ar
   107    40    39    1
   108    29    30    2
