@<TRIPOS>MOLECULE
tmp/1w70B00.pdb
 128 127 0 0 0
SMALL
GASTEIGER

@<TRIPOS>ATOM
      1  N          8.5080   26.2400   21.5060 N.3    11  PHE11      -0.1227
      2  CA         7.4720   25.2490   21.8240 C.3    11  PHE11       0.1736
      3  C          7.2880   24.3470   20.6200 C.2    11  PHE11       0.2595
      4  O          7.5280   24.7620   19.4850 O.2    11  PHE11      -0.2718
      5  CB         6.1290   25.9460   22.0850 C.3    11  PHE11       0.0547
      6  CG         6.1820   26.9500   23.1840 C.ar   11  PHE11      -0.0202
      7  CD1        6.0120   26.5560   24.5080 C.ar   11  PHE11      -0.0042
      8  CD2        6.4540   28.2890   22.9080 C.ar   11  PHE11      -0.0042
      9  CE1        6.1110   27.4830   25.5470 C.ar   11  PHE11      -0.0003
     10  CE2        6.5580   29.2190   23.9300 C.ar   11  PHE11      -0.0003
     11  CZ         6.3860   28.8170   25.2600 C.ar   11  PHE11      -0.0000
     12  N          6.8600   23.1100   20.8480 N.am   12  ASP12      -0.1960
     13  CA         6.5940   22.1860   19.7500 C.3    12  ASP12       0.1840
     14  C          5.3410   22.6940   19.0150 C.2    12  ASP12       0.2622
     15  O          4.4260   23.2690   19.6140 O.2    12  ASP12      -0.2715
     16  CB         6.2350   20.7810   20.2540 C.3    12  ASP12       0.1450
     17  CG         7.3630   20.0670   20.9790 C.2    12  ASP12       0.3671
     18  OD1        8.5450   20.4680   20.9400 O.co2  12  ASP12      -0.2456
     19  OD2        7.0220   19.0320   21.6110 O.co2  12  ASP12      -0.2456
     20  N          5.3000   22.4630   17.7110 N.am   13  PHE13      -0.1960
     21  CA         4.1260   22.8120   16.9300 C.3    13  PHE13       0.1771
     22  C          3.8730   21.6720   15.9650 C.2    13  PHE13       0.2620
     23  O          4.7770   21.2550   15.2350 O.2    13  PHE13      -0.2715
     24  CB         4.3230   24.1050   16.1260 C.3    13  PHE13       0.0574
     25  CG         3.1400   24.4610   15.2590 C.ar   13  PHE13      -0.0200
     26  CD1        1.9140   24.7910   15.8330 C.ar   13  PHE13      -0.0042
     27  CD2        3.2430   24.4270   13.8700 C.ar   13  PHE13      -0.0042
     28  CE1        0.7960   25.0830   15.0310 C.ar   13  PHE13      -0.0003
     29  CE2        2.1310   24.7140   13.0620 C.ar   13  PHE13      -0.0003
     30  CZ         0.9100   25.0430   13.6430 C.ar   13  PHE13      -0.0000
     31  N          2.6450   21.1570   15.9710 N.am   14  THR14      -0.1937
     32  CA         2.2590   20.1010   15.0510 C.3    14  THR14       0.2028
     33  C          1.1350   20.6910   14.1980 C.2    14  THR14       0.2643
     34  O          0.0860   21.0540   14.7160 O.2    14  THR14      -0.2714
     35  CB         1.7540   18.8630   15.8100 C.3    14  THR14       0.1808
     36  OG1        2.7700   18.4330   16.7230 O.3    14  THR14      -0.2208
     37  CG2        1.4590   17.7220   14.8420 C.3    14  THR14       0.0379
     38  N          1.3690   20.7980   12.8940 N.am   15  GLY15      -0.1939
     39  CA         0.3690   21.3710   12.0060 C.3    15  GLY15       0.2014
     40  C         -0.8710   20.5180   11.8560 C.2    15  GLY15       0.2638
     41  O         -0.8460   19.3270   12.1140 O.2    15  GLY15      -0.2714
     42  N         -1.9580   21.1330   11.4130 N.am   16  ASN16      -0.1972
     43  CA        -3.2220   20.4190   11.2270 C.3    16  ASN16       0.1688
     44  C         -3.4460   20.1980    9.7350 C.2    16  ASN16       0.2292
     45  O         -4.3720   19.5000    9.3020 O.2    16  ASN16      -0.2864
     46  CB        -4.3540   21.2460   11.8390 C.3    16  ASN16       0.1181
     47  CG        -5.7060   20.5760   11.7200 C.2    16  ASN16       0.2629
     48  OD1       -6.2370   20.4170   10.6250 O.2    16  ASN16      -0.2716
     49  ND2       -6.2730   20.1880   12.8540 N.am   16  ASN16      -0.0877
     50  N          0.8990   23.5540    6.8770 N.3    20  GLU20      -0.1245
     51  CA         1.5600   23.9630    8.1100 C.3    20  GLU20       0.1567
     52  C          2.8450   23.1970    8.3530 C.2    20  GLU20       0.2260
     53  O          3.0070   22.0470    7.9360 O.2    20  GLU20      -0.2867
     54  CB         0.6040   23.8060    9.2970 C.3    20  GLU20       0.0388
     55  CG        -0.5910   24.7350    9.1040 C.3    20  GLU20       0.1160
     56  CD        -1.6370   24.6830   10.1750 C.2    20  GLU20       0.3649
     57  OE1       -1.4660   23.9650   11.1750 O.co2  20  GLU20      -0.2457
     58  OE2       -2.6580   25.3830    9.9990 O.co2  20  GLU20      -0.2457
     59  N          2.9620   35.5970    6.4790 N.3    35  ILE35      -0.1231
     60  CA         1.6570   35.2060    5.9620 C.3    35  ILE35       0.1692
     61  C          0.5990   36.2170    6.4200 C.2    35  ILE35       0.2592
     62  O         -0.2400   36.6770    5.6250 O.2    35  ILE35      -0.2718
     63  CB         1.2920   33.7780    6.4370 C.3    35  ILE35       0.0266
     64  CG1        2.3470   32.7820    5.9360 C.3    35  ILE35       0.0019
     65  CG2       -0.1060   33.3840    5.9350 C.3    35  ILE35       0.0020
     66  CD1        2.3780   32.5810    4.3960 C.3    35  ILE35       0.0001
     67  N          0.5940   36.5230    7.7130 N.am   36  ASN36      -0.1974
     68  CA        -0.2980   37.5590    8.2410 C.3    36  ASN36       0.1688
     69  C          0.2780   37.9590    9.5840 C.2    36  ASN36       0.2292
     70  O          1.4080   37.5820    9.8720 O.2    36  ASN36      -0.2864
     71  CB        -1.7810   37.1070    8.2940 C.3    36  ASN36       0.1181
     72  CG        -2.1270   36.2960    9.5070 C.2    36  ASN36       0.2629
     73  OD1       -1.2630   35.7080   10.1340 O.2    36  ASN36      -0.2716
     74  ND2       -3.4190   36.2470    9.8430 N.am   36  ASN36      -0.0877
     75  N         -0.2010   36.8770   12.5240 N.3    38  ASP38      -0.1225
     76  CA         0.0180   35.7610   13.4440 C.3    38  ASP38       0.1805
     77  C          0.7990   34.5990   12.8750 C.2    38  ASP38       0.2597
     78  O          1.2400   33.7490   13.6450 O.2    38  ASP38      -0.2718
     79  CB        -1.3200   35.1840   13.9430 C.3    38  ASP38       0.1424
     80  CG        -2.1590   36.1980   14.6890 C.2    38  ASP38       0.3668
     81  OD1       -1.5880   36.9190   15.5180 O.co2  38  ASP38      -0.2456
     82  OD2       -3.3800   36.2600   14.4370 O.co2  38  ASP38      -0.2456
     83  N          0.9530   34.5360   11.5560 N.am   39  TRP39      -0.1976
     84  CA         1.6140   33.4140   10.9130 C.3    39  TRP39       0.1640
     85  C          2.7600   33.7940    9.9980 C.2    39  TRP39       0.2290
     86  O          2.6880   34.7920    9.2830 O.2    39  TRP39      -0.2864
     87  CB         0.6080   32.6030   10.0790 C.3    39  TRP39       0.0576
     88  CG        -0.5240   31.9910   10.8730 C.ar   39  TRP39       0.0006
     89  CD1       -1.6590   32.6260   11.3200 C.ar   39  TRP39       0.0946
     90  CD2       -0.6180   30.6320   11.3310 C.ar   39  TRP39       0.0152
     91  NE1       -2.4530   31.7400   12.0330 N.ar   39  TRP39      -0.2442
     92  CE2       -1.8330   30.5150   12.0560 C.ar   39  TRP39       0.0810
     93  CE3        0.2030   29.4990   11.1980 C.ar   39  TRP39       0.0012
     94  CZ2       -2.2420   29.3060   12.6480 C.ar   39  TRP39       0.0191
     95  CZ3       -0.2080   28.2920   11.7840 C.ar   39  TRP39       0.0001
     96  CH2       -1.4210   28.2110   12.5010 C.ar   39  TRP39       0.0015
     97  N          3.5820   26.9450    7.0100 N.3    50  ILE50      -0.1245
     98  CA         3.3080   28.0780    7.8830 C.3    50  ILE50       0.1561
     99  C          3.2290   27.6800    9.3600 C.2    50  ILE50       0.2260
    100  O          2.9790   26.5170    9.7090 O.2    50  ILE50      -0.2867
    101  CB         2.0130   28.8430    7.4330 C.3    50  ILE50       0.0252
    102  CG1        0.7420   28.0440    7.7400 C.3    50  ILE50       0.0019
    103  CG2        2.0820   29.1360    5.9010 C.3    50  ILE50       0.0019
    104  CD1       -0.5380   28.8910    7.5920 C.3    50  ILE50       0.0001
    105  N          2.7990   29.5410   13.7250 N.3    52  PRO52      -0.2116
    106  CA         2.5370   30.7440   14.5190 C.3    52  PRO52       0.1372
    107  C          3.7710   31.4760   15.0260 C.2    52  PRO52       0.2244
    108  O          4.6660   30.8680   15.6300 O.2    52  PRO52      -0.2868
    109  CB         1.7070   30.2210   15.7030 C.3    52  PRO52       0.0268
    110  CG         1.2450   28.8430   15.2820 C.3    52  PRO52       0.0207
    111  CD         2.4070   28.3330   14.4810 C.3    52  PRO52       0.0892
    112  N          3.9110   33.2920   17.5200 N.3    54  SER54      -0.1202
    113  CA         4.0130   33.1950   18.9640 C.3    54  SER54       0.2020
    114  C          4.7460   31.9730   19.4880 C.2    54  SER54       0.2618
    115  O          5.0850   31.9210   20.6640 O.2    54  SER54      -0.2717
    116  CB         2.6160   33.2450   19.5800 C.3    54  SER54       0.2103
    117  OG         1.8910   32.1170   19.1900 O.3    54  SER54      -0.2182
    118  N          5.0150   31.0120   18.6220 N.am   55  PHE55      -0.1975
    119  CA         5.6950   29.8000   19.0560 C.3    55  PHE55       0.1639
    120  C          7.2100   29.9010   18.9230 C.2    55  PHE55       0.2290
    121  O          7.9170   28.9770   19.3080 O.2    55  PHE55      -0.2864
    122  CB         5.2030   28.6150   18.2200 C.3    55  PHE55       0.0560
    123  CG         3.9180   27.9920   18.7070 C.ar   55  PHE55      -0.0200
    124  CD1        2.7610   28.7540   18.8600 C.ar   55  PHE55      -0.0042
    125  CD2        3.8600   26.6320   18.9800 C.ar   55  PHE55      -0.0042
    126  CE1        1.5640   28.1470   19.2810 C.ar   55  PHE55      -0.0003
    127  CE2        2.6730   26.0350   19.3960 C.ar   55  PHE55      -0.0003
    128  CZ         1.5310   26.7980   19.5430 C.ar   55  PHE55      -0.0000
@<TRIPOS>BOND
     1    66    64    1
     2    62    61    2
     3   103   101    1
     4    65    63    1
     5    64    63    1
     6    60    61    1
     7    60    63    1
     8    60    59    1
     9    61    67   am
    10    50    51    1
    11    97    98    1
    12   101   102    1
    13   101    98    1
    14   104   102    1
    15    67    68    1
    16    98    99    1
    17    53    52    2
    18    51    52    1
    19    51    54    1
    20    68    71    1
    21    68    69    1
    22    71    72    1
    23    55    54    1
    24    55    56    1
    25    86    85    2
    26    45    44    2
    27    99   100    2
    28    72    74   am
    29    72    73    2
    30    69    70    2
    31    44    43    1
    32    85    84    1
    33    58    56   ar
    34    87    88    1
    35    87    84    1
    36    56    57   ar
    37    48    47    2
    38    88    89   ar
    39    88    90   ar
    40    84    83    1
    41    93    90   ar
    42    93    95   ar
    43    43    42    1
    44    43    46    1
    45    89    91   ar
    46    90    92   ar
    47    42    40   am
    48    83    77   am
    49    47    46    1
    50    47    49   am
    51    95    96   ar
    52    40    39    1
    53    40    41    2
    54    39    38    1
    55    91    92   ar
    56    92    94   ar
    57    96    94   ar
    58    75    76    1
    59    77    76    1
    60    77    78    2
    61    38    33   am
    62    29    30   ar
    63    29    27   ar
    64    76    79    1
    65    30    28   ar
    66   105   111    1
    67   105   106    1
    68    27    25   ar
    69    79    80    1
    70    33    34    2
    71    33    32    1
    72    82    80   ar
    73   111   110    1
    74   106   107    1
    75   106   109    1
    76    80    81   ar
    77    37    35    1
    78   107   108    2
    79    28    26   ar
    80    32    35    1
    81    32    31    1
    82    23    22    2
    83    25    26   ar
    84    25    24    1
    85   110   109    1
    86    35    36    1
    87    22    31   am
    88    22    21    1
    89    24    21    1
    90    21    20    1
    91   112   113    1
    92    20    14   am
    93   122   123    1
    94   122   119    1
    95   118   119    1
    96   118   114   am
    97   123   124   ar
    98   123   125   ar
    99   124   126   ar
   100   120   119    1
   101   120   121    2
   102   113   114    1
   103   113   116    1
   104   125   127   ar
   105    14    15    2
   106    14    13    1
   107   117   116    1
   108   126   128   ar
   109   127   128   ar
   110     4     3    2
   111   114   115    2
   112    13    16    1
   113    13    12    1
   114    16    17    1
   115     3    12   am
   116     3     2    1
   117    18    17   ar
   118    17    19   ar
   119     1     2    1
   120     2     5    1
   121     5     6    1
   122     8     6   ar
   123     8    10   ar
   124     6     7   ar
   125    10    11   ar
   126     7     9   ar
   127    11     9   ar
