@<TRIPOS>MOLECULE
tmp/1w70A00.pdb
 136 135 0 0 0
SMALL
GASTEIGER

@<TRIPOS>ATOM
      1  N         25.1160   33.4490   25.6690 N.3    10  LEU10      -0.1231
      2  CA        25.6730   34.7860   25.7460 C.3    10  LEU10       0.1693
      3  C         26.7010   35.0110   24.6490 C.2    10  LEU10       0.2592
      4  O         27.0150   36.1560   24.2940 O.2    10  LEU10      -0.2718
      5  CB        26.3470   34.9990   27.0990 C.3    10  LEU10       0.0284
      6  CG        25.4530   34.9370   28.3260 C.3    10  LEU10       0.0019
      7  CD1       26.3010   35.0600   29.5880 C.3    10  LEU10       0.0001
      8  CD2       24.4210   36.0560   28.2520 C.3    10  LEU10       0.0001
      9  N         27.2380   33.9140   24.1330 N.am   11  PHE11      -0.1962
     10  CA        28.2430   33.9580   23.0790 C.3    11  PHE11       0.1771
     11  C         28.0190   32.7610   22.1780 C.2    11  PHE11       0.2620
     12  O         27.3120   31.8120   22.5440 O.2    11  PHE11      -0.2715
     13  CB        29.6590   33.8210   23.6730 C.3    11  PHE11       0.0574
     14  CG        29.9810   34.8390   24.7180 C.ar   11  PHE11      -0.0200
     15  CD1       30.5120   36.0670   24.3640 C.ar   11  PHE11      -0.0042
     16  CD2       29.7250   34.5800   26.0570 C.ar   11  PHE11      -0.0042
     17  CE1       30.7800   37.0210   25.3410 C.ar   11  PHE11      -0.0003
     18  CE2       29.9940   35.5420   27.0380 C.ar   11  PHE11      -0.0003
     19  CZ        30.5200   36.7540   26.6690 C.ar   11  PHE11      -0.0000
     20  N         28.6220   32.7960   20.9940 N.am   12  ASP12      -0.1957
     21  CA        28.5610   31.6540   20.0940 C.3    12  ASP12       0.1840
     22  C         29.4640   30.5740   20.6950 C.2    12  ASP12       0.2622
     23  O         30.4710   30.8770   21.3560 O.2    12  ASP12      -0.2715
     24  CB        29.1830   31.9530   18.7250 C.3    12  ASP12       0.1450
     25  CG        28.3550   32.8640   17.8480 C.2    12  ASP12       0.3671
     26  OD1       27.2780   33.3490   18.2340 O.co2  12  ASP12      -0.2456
     27  OD2       28.8310   33.1080   16.7160 O.co2  12  ASP12      -0.2456
     28  N         29.1190   29.3180   20.4530 N.am   13  PHE13      -0.1960
     29  CA        29.9630   28.2090   20.8980 C.3    13  PHE13       0.1771
     30  C         30.0040   27.1430   19.8130 C.2    13  PHE13       0.2620
     31  O         28.9620   26.6410   19.3660 O.2    13  PHE13      -0.2715
     32  CB        29.4650   27.5570   22.1940 C.3    13  PHE13       0.0574
     33  CG        30.3090   26.3820   22.6340 C.ar   13  PHE13      -0.0200
     34  CD1       31.6400   26.5550   23.0130 C.ar   13  PHE13      -0.0042
     35  CD2       29.7750   25.0950   22.6400 C.ar   13  PHE13      -0.0042
     36  CE1       32.4230   25.4630   23.3830 C.ar   13  PHE13      -0.0003
     37  CE2       30.5550   24.0000   23.0140 C.ar   13  PHE13      -0.0003
     38  CZ        31.8760   24.1840   23.3840 C.ar   13  PHE13      -0.0000
     39  N         31.2160   26.8450   19.3530 N.am   14  THR14      -0.1937
     40  CA        31.4450   25.8060   18.3570 C.3    14  THR14       0.2028
     41  C         32.2740   24.7470   19.0590 C.2    14  THR14       0.2643
     42  O         33.4130   25.0040   19.4730 O.2    14  THR14      -0.2714
     43  CB        32.2160   26.3470   17.1570 C.3    14  THR14       0.1808
     44  OG1       31.4250   27.3610   16.5250 O.3    14  THR14      -0.2208
     45  CG2       32.4940   25.2380   16.1330 C.3    14  THR14       0.0379
     46  N         31.6930   23.5630   19.1820 N.am   15  GLY15      -0.1939
     47  CA        32.3690   22.4900   19.8800 C.3    15  GLY15       0.2014
     48  C         33.4400   21.7790   19.0910 C.2    15  GLY15       0.2638
     49  O         33.5610   21.9350   17.8810 O.2    15  GLY15      -0.2714
     50  N         34.2040   20.9660   19.8050 N.am   16  ASN16      -0.1972
     51  CA        35.2930   20.2070   19.2210 C.3    16  ASN16       0.1688
     52  C         34.8720   18.8450   18.6770 C.2    16  ASN16       0.2292
     53  O         35.6410   18.2160   17.9570 O.2    16  ASN16      -0.2864
     54  CB        36.4080   20.0190   20.2540 C.3    16  ASN16       0.1181
     55  CG        37.3120   21.2450   20.3840 C.2    16  ASN16       0.2629
     56  OD1       38.3050   21.2210   21.1240 O.2    16  ASN16      -0.2716
     57  ND2       36.9730   22.3150   19.6710 N.am   16  ASN16      -0.0877
     58  N         29.6870   17.7420   21.8130 N.3    20  GLU20      -0.1245
     59  CA        29.4810   19.1260   22.2450 C.3    20  GLU20       0.1567
     60  C         28.4010   19.8150   21.4210 C.2    20  GLU20       0.2260
     61  O         28.2690   19.5990   20.2160 O.2    20  GLU20      -0.2867
     62  CB        30.8130   19.8900   22.1730 C.3    20  GLU20       0.0388
     63  CG        31.8590   19.2160   23.0670 C.3    20  GLU20       0.1160
     64  CD        33.2160   19.8610   23.0340 C.2    20  GLU20       0.3649
     65  OE1       33.3590   20.9550   22.4760 O.co2  20  GLU20      -0.2457
     66  OE2       34.1510   19.2600   23.6010 O.co2  20  GLU20      -0.2457
     67  N         26.8840   18.2630   33.9310 N.3    35  ILE35      -0.1231
     68  CA        28.0130   17.3440   33.7740 C.3    35  ILE35       0.1692
     69  C         29.0070   17.5010   34.9170 C.2    35  ILE35       0.2592
     70  O         29.4050   16.5150   35.5450 O.2    35  ILE35      -0.2718
     71  CB        28.7280   17.5870   32.4190 C.3    35  ILE35       0.0266
     72  CG1       27.7700   17.3190   31.2570 C.3    35  ILE35       0.0019
     73  CG2       29.9630   16.7100   32.3230 C.3    35  ILE35       0.0020
     74  CD1       27.1880   15.9130   31.2450 C.3    35  ILE35       0.0001
     75  N         29.4380   18.7330   35.1580 N.am   36  ASN36      -0.1974
     76  CA        30.3320   19.0360   36.2750 C.3    36  ASN36       0.1688
     77  C         30.2520   20.5280   36.5650 C.2    36  ASN36       0.2292
     78  O         29.3680   21.2130   36.0510 O.2    36  ASN36      -0.2864
     79  CB        31.7780   18.5730   36.0150 C.3    36  ASN36       0.1181
     80  CG        32.4480   19.2830   34.8450 C.2    36  ASN36       0.2629
     81  OD1       32.0670   20.3860   34.4580 O.2    36  ASN36      -0.2716
     82  ND2       33.4820   18.6520   34.3030 N.am   36  ASN36      -0.0877
     83  N         31.7840   23.0260   35.4550 N.3    38  ASP38      -0.1225
     84  CA        31.9160   23.8970   34.2940 C.3    38  ASP38       0.1805
     85  C         31.0540   23.5700   33.0830 C.2    38  ASP38       0.2597
     86  O         30.9220   24.4140   32.2070 O.2    38  ASP38      -0.2718
     87  CB        33.3760   23.9080   33.8060 C.3    38  ASP38       0.1424
     88  CG        34.3480   24.4440   34.8410 C.2    38  ASP38       0.3668
     89  OD1       34.0110   25.4200   35.5290 O.co2  38  ASP38      -0.2456
     90  OD2       35.4670   23.8900   34.9320 O.co2  38  ASP38      -0.2456
     91  N         30.4820   22.3730   33.0280 N.am   39  TRP39      -0.1976
     92  CA        29.7280   21.9560   31.8510 C.3    39  TRP39       0.1640
     93  C         28.3100   21.5030   32.1190 C.2    39  TRP39       0.2290
     94  O         28.0420   20.8430   33.1110 O.2    39  TRP39      -0.2864
     95  CB        30.4520   20.7900   31.1400 C.3    39  TRP39       0.0576
     96  CG        31.8290   21.1220   30.6000 C.ar   39  TRP39       0.0006
     97  CD1       32.9870   21.2260   31.3060 C.ar   39  TRP39       0.0946
     98  CD2       32.1440   21.4570   29.2460 C.ar   39  TRP39       0.0152
     99  NE1       34.0150   21.6230   30.4730 N.ar   39  TRP39      -0.2442
    100  CE2       33.5170   21.7690   29.2010 C.ar   39  TRP39       0.0810
    101  CE3       31.3950   21.5180   28.0700 C.ar   39  TRP39       0.0012
    102  CZ2       34.1560   22.1450   28.0310 C.ar   39  TRP39       0.0191
    103  CZ3       32.0330   21.8860   26.8830 C.ar   39  TRP39       0.0001
    104  CH2       33.4040   22.1980   26.8780 C.ar   39  TRP39       0.0015
    105  N         27.0270   18.6100   25.2450 N.3    50  ILE50      -0.1245
    106  CA        27.5310   19.3850   26.3630 C.3    50  ILE50       0.1561
    107  C         28.0630   20.7490   25.9380 C.2    50  ILE50       0.2260
    108  O         28.4540   20.9570   24.7900 O.2    50  ILE50      -0.2867
    109  CB        28.6270   18.5870   27.1090 C.3    50  ILE50       0.0252
    110  CG1       29.9060   18.4940   26.2700 C.3    50  ILE50       0.0019
    111  CG2       28.0920   17.1890   27.4090 C.3    50  ILE50       0.0019
    112  CD1       31.0830   17.8340   27.0080 C.3    50  ILE50       0.0001
    113  N         29.7500   24.7970   27.7750 N.3    52  PRO52      -0.2116
    114  CA        30.1780   25.4820   28.9950 C.3    52  PRO52       0.1372
    115  C         29.1300   26.3560   29.6720 C.2    52  PRO52       0.2244
    116  O         28.4560   27.1370   29.0170 O.2    52  PRO52      -0.2868
    117  CB        31.3850   26.3240   28.5320 C.3    52  PRO52       0.0268
    118  CG        31.7350   25.7980   27.1930 C.3    52  PRO52       0.0207
    119  CD        30.4380   25.3430   26.5930 C.3    52  PRO52       0.0892
    120  N         29.7190   28.8540   31.4410 N.3    54  SER54      -0.1202
    121  CA        30.1220   30.2520   31.3030 C.3    54  SER54       0.2020
    122  C         29.6560   30.9340   30.0180 C.2    54  SER54       0.2618
    123  O         29.7250   32.1580   29.8980 O.2    54  SER54      -0.2717
    124  CB        31.6400   30.3670   31.4140 C.3    54  SER54       0.2103
    125  OG        32.2880   29.6410   30.3730 O.3    54  SER54      -0.2182
    126  N         29.1760   30.1520   29.0590 N.am   55  PHE55      -0.1975
    127  CA        28.7250   30.7190   27.7970 C.3    55  PHE55       0.1639
    128  C         27.2330   31.0250   27.7830 C.2    55  PHE55       0.2290
    129  O         26.7070   31.4780   26.7700 O.2    55  PHE55      -0.2864
    130  CB        29.0520   29.7690   26.6330 C.3    55  PHE55       0.0560
    131  CG        30.4640   29.9020   26.1000 C.ar   55  PHE55      -0.0200
    132  CD1       31.5660   29.7410   26.9390 C.ar   55  PHE55      -0.0042
    133  CD2       30.6830   30.1640   24.7480 C.ar   55  PHE55      -0.0042
    134  CE1       32.8710   29.8370   26.4390 C.ar   55  PHE55      -0.0003
    135  CE2       31.9970   30.2640   24.2240 C.ar   55  PHE55      -0.0003
    136  CZ        33.0870   30.1010   25.0770 C.ar   55  PHE55      -0.0000
@<TRIPOS>BOND
     1    45    43    1
     2    44    43    1
     3    27    25   ar
     4    43    40    1
     5    25    26   ar
     6    25    24    1
     7    49    48    2
     8    53    52    2
     9    40    41    1
    10    40    39    1
    11    52    51    1
    12    24    21    1
    13    41    46   am
    14    41    42    2
    15    48    50   am
    16    48    47    1
    17    46    47    1
    18    51    50    1
    19    51    54    1
    20    39    30   am
    21    31    30    2
    22    57    55   am
    23    30    29    1
    24    21    22    1
    25    21    20    1
    26    61    60    2
    27    54    55    1
    28    55    56    2
    29    28    22   am
    30    28    29    1
    31    22    23    2
    32    29    32    1
    33    20    11   am
    34    60    59    1
    35    58    59    1
    36    62    59    1
    37    62    63    1
    38    11    12    2
    39    11    10    1
    40    32    33    1
    41    65    64   ar
    42    33    35   ar
    43    33    34   ar
    44    35    37   ar
    45    34    36   ar
    46    37    38   ar
    47    64    63    1
    48    64    66   ar
    49    10    13    1
    50    10     9    1
    51    36    38   ar
    52    13    14    1
    53     9     3   am
    54   135   133   ar
    55   135   136   ar
    56     4     3    2
    57    15    14   ar
    58    15    17   ar
    59     3     2    1
    60    14    16   ar
    61   133   131   ar
    62   108   107    2
    63   136   134   ar
    64   105   106    1
    65    17    19   ar
    66     1     2    1
    67     2     5    1
    68   107   106    1
    69    16    18   ar
    70   131   130    1
    71   131   132   ar
    72   110   112    1
    73   110   109    1
    74   106   109    1
    75   134   132   ar
    76   119   118    1
    77   119   113    1
    78   130   127    1
    79    19    18   ar
    80   129   128    2
    81   104   103   ar
    82   104   102   ar
    83   103   101   ar
    84     5     6    1
    85   109   111    1
    86   118   117    1
    87   113   114    1
    88   128   127    1
    89   127   126    1
    90   102   100   ar
    91   101    98   ar
    92     8     6    1
    93     6     7    1
    94   117   114    1
    95   114   115    1
    96   116   115    2
    97   126   122   am
    98   100    98   ar
    99   100    99   ar
   100    98    96   ar
   101   123   122    2
   102   122   121    1
   103   125   124    1
   104    99    97   ar
   105    96    95    1
   106    96    97   ar
   107    95    92    1
   108    74    72    1
   109    72    71    1
   110   121   124    1
   111   121   120    1
   112    92    93    1
   113    92    91    1
   114    93    94    2
   115    86    85    2
   116    73    71    1
   117    71    68    1
   118    91    85   am
   119    85    84    1
   120    68    67    1
   121    68    69    1
   122    87    84    1
   123    87    88    1
   124    84    83    1
   125    82    80   am
   126    81    80    2
   127    88    90   ar
   128    88    89   ar
   129    80    79    1
   130    69    75   am
   131    69    70    2
   132    75    76    1
   133    79    76    1
   134    78    77    2
   135    76    77    1
