@<TRIPOS>MOLECULE
tmp/1w77A00.pdb
 118 111 0 0 0
SMALL
GASTEIGER

@<TRIPOS>ATOM
      1  N          9.9860   67.3460  -15.5620 N.3    10  LEU10      -0.1231
      2  CA        11.2750   68.0340  -15.7440 C.3    10  LEU10       0.1693
      3  C         11.0650   69.4560  -16.2610 C.2    10  LEU10       0.2592
      4  O         10.5640   69.6820  -17.3650 O.2    10  LEU10      -0.2718
      5  CB        12.2350   67.2450  -16.6530 C.3    10  LEU10       0.0284
      6  CG        12.8090   65.8650  -16.2850 C.3    10  LEU10       0.0019
      7  CD1       13.3560   65.1110  -17.5300 C.3    10  LEU10       0.0001
      8  CD2       13.8880   65.9760  -15.1700 C.3    10  LEU10       0.0001
      9  N         11.4380   70.4320  -15.4470 N.am   11  ALA11      -0.1966
     10  CA        11.2820   71.8250  -15.8690 C.3    11  ALA11       0.1728
     11  C         12.4700   72.7050  -15.4630 C.2    11  ALA11       0.2617
     12  O         12.3280   73.9260  -15.3310 O.2    11  ALA11      -0.2715
     13  CB         9.9290   72.4070  -15.3760 C.3    11  ALA11       0.0334
     14  N         13.6360   72.0690  -15.3070 N.am   12  GLY12      -0.1940
     15  CA        14.8120   72.6730  -14.6760 C.3    12  GLY12       0.2014
     16  C         15.6570   73.4520  -15.6650 C.2    12  GLY12       0.2639
     17  O         15.1870   73.8050  -16.7500 O.2    12  GLY12      -0.2714
     18  N         16.9100   73.7060  -15.2980 N.am   13  GLY13      -0.1954
     19  CA        17.8410   74.4080  -16.1680 C.3    13  GLY13       0.1869
     20  C         19.0510   73.5580  -16.5060 C.2    13  GLY13       0.2309
     21  O         20.1950   74.0120  -16.4080 O.2    13  GLY13      -0.2863
     22  N          9.9660   76.5180  -21.1320 N.3    18  GLN18      -0.1245
     23  CA         8.8310   75.8630  -20.5060 C.3    18  GLN18       0.1566
     24  C          8.0710   76.8210  -19.5910 C.2    18  GLN18       0.2260
     25  O          7.2970   76.3740  -18.7260 O.2    18  GLN18      -0.2867
     26  CB         9.2510   74.6060  -19.7350 C.3    18  GLN18       0.0367
     27  CG         9.9400   74.8510  -18.4270 C.3    18  GLN18       0.0905
     28  CD        11.4340   74.9090  -18.5890 C.2    18  GLN18       0.2608
     29  OE1       11.9350   74.9600  -19.7090 O.2    18  GLN18      -0.2717
     30  NE2       12.1540   74.8970  -17.4780 N.am   18  GLN18      -0.0878
     31  N         10.7340   69.3190  -11.2360 N.3    47  VAL47      -0.1245
     32  CA        12.1830   69.5780  -11.2250 C.3    47  VAL47       0.1561
     33  C         12.4410   70.9010  -11.8630 C.2    47  VAL47       0.2260
     34  O         12.1620   71.1310  -13.0670 O.2    47  VAL47      -0.2867
     35  CB        13.0910   68.3930  -11.7190 C.3    47  VAL47       0.0252
     36  CG1       14.5680   68.7110  -11.4530 C.3    47  VAL47       0.0019
     37  CG2       12.7200   67.0500  -10.9730 C.3    47  VAL47       0.0019
     38  N         17.2360   70.4870   -9.6420 N.3    72  PRO72      -0.2102
     39  CA        17.8700   70.0030  -10.8380 C.3    72  PRO72       0.1504
     40  C         19.3650   69.7660  -10.6630 C.2    72  PRO72       0.2576
     41  O         19.9690   70.2170   -9.6800 O.2    72  PRO72      -0.2718
     42  CB        17.6870   71.1510  -11.8160 C.3    72  PRO72       0.0282
     43  CG        16.6430   72.0040  -11.2340 C.3    72  PRO72       0.0208
     44  CD        16.7520   71.8690   -9.7770 C.3    72  PRO72       0.0893
     45  N         19.9430   69.0910  -11.6540 N.am   73  GLY73      -0.1943
     46  CA        21.3670   68.8800  -11.7120 C.3    73  GLY73       0.2014
     47  C         21.9400   69.3270  -13.0360 C.2    73  GLY73       0.2639
     48  O         21.2510   69.9200  -13.8780 O.2    73  GLY73      -0.2714
     49  N         23.2070   68.9950  -13.2310 N.am   74  LYS74      -0.1963
     50  CA        23.9940   69.5840  -14.2910 C.3    74  LYS74       0.1728
     51  C         23.4340   69.1440  -15.6290 C.2    74  LYS74       0.2616
     52  O         23.2810   69.9470  -16.5370 O.2    74  LYS74      -0.2715
     53  CB        25.4740   69.1720  -14.1490 C.3    74  LYS74       0.0311
     54  CG        26.4220   69.6200  -15.2660 C.3    74  LYS74       0.0038
     55  CD        26.8380   71.0670  -15.1350 C.3    74  LYS74       0.0206
     56  CE        28.2140   71.3140  -15.7540 C.3    74  LYS74       0.1093
     57  NZ        28.2760   71.0080  -17.2100 N.3    74  LYS74      -0.1314
     58  N         23.1120   67.8600  -15.7420 N.am   75  GLU75      -0.1963
     59  CA        22.6760   67.3150  -17.0150 C.3    75  GLU75       0.1733
     60  C         21.2940   66.7160  -16.8570 C.2    75  GLU75       0.2616
     61  O         20.8920   66.3880  -15.7550 O.2    75  GLU75      -0.2715
     62  CB        23.6740   66.2660  -17.5270 C.3    75  GLU75       0.0429
     63  CG        25.1100   66.7740  -17.6740 C.3    75  GLU75       0.1163
     64  CD        25.2790   67.8520  -18.7420 C.2    75  GLU75       0.3649
     65  OE1       24.5430   67.8290  -19.7530 O.co2  75  GLU75      -0.2457
     66  OE2       26.1700   68.7180  -18.5840 O.co2  75  GLU75      -0.2457
     67  N         20.5890   66.5510  -17.9710 N.am   76  ARG76      -0.1977
     68  CA        19.2350   65.9870  -17.9710 C.3    76  ARG76       0.1597
     69  C         19.0490   64.7830  -17.0260 C.2    76  ARG76       0.2287
     70  O         18.0220   64.6710  -16.3810 O.2    76  ARG76      -0.2864
     71  CB        18.8160   65.6600  -19.4020 C.3    76  ARG76       0.0334
     72  CG        17.3560   65.3390  -19.6120 C.3    76  ARG76       0.0492
     73  CD        17.0900   63.9320  -20.1530 C.3    76  ARG76       0.2205
     74  NE        15.7110   63.8140  -20.6280 N.pl3  76  ARG76      -0.0865
     75  CZ        14.8440   62.8980  -20.2170 C.cat  76  ARG76       0.5346
     76  NH1       15.2260   61.9690  -19.3520 N.pl3  76  ARG76       0.1354
     77  NH2       13.5950   62.9000  -20.6890 N.pl3  76  ARG76       0.1354
     78  N         19.0140   65.5020  -12.8320 N.3    79  SER79      -0.1217
     79  CA        17.7090   65.9870  -12.4080 C.3    79  SER79       0.1889
     80  C         16.7510   64.8110  -12.1860 C.2    79  SER79       0.2288
     81  O         16.2650   64.5900  -11.0730 O.2    79  SER79      -0.2866
     82  CB        17.1750   66.9090  -13.4900 C.3    79  SER79       0.2089
     83  OG        18.0780   67.9760  -13.7290 O.3    79  SER79      -0.2183
     84  N          8.8160   65.6170  -19.6160 N.3    98  ASP98      -0.1225
     85  CA         9.5260   66.8320  -19.9230 C.3    98  ASP98       0.1805
     86  C          8.5320   67.9600  -20.1210 C.2    98  ASP98       0.2598
     87  O          7.7480   67.9560  -21.0610 O.2    98  ASP98      -0.2718
     88  CB        10.3770   66.6210  -21.1700 C.3    98  ASP98       0.1424
     89  CG        11.0700   67.8990  -21.6500 C.2    98  ASP98       0.3668
     90  OD1       11.3680   68.8050  -20.8350 O.co2  98  ASP98      -0.2456
     91  OD2       11.3740   68.0660  -22.8500 O.co2  98  ASP98      -0.2456
     92  N          8.6450   68.9650  -19.2610 N.am   99  SER99      -0.1938
     93  CA         7.7810   70.1750  -19.3090 C.3    99  SER99       0.2055
     94  C          7.4460   70.7050  -20.6790 C.2    99  SER99       0.2642
     95  O          6.3580   71.2510  -20.8680 O.2    99  SER99      -0.2714
     96  CB         8.4270   71.3120  -18.5130 C.3    99  SER99       0.2130
     97  OG         8.4620   70.9740  -17.1360 O.3    99  SER99      -0.2179
     98  N          8.4130   70.6390  -21.6040 N.am  100  ALA100     -0.1977
     99  CA         8.2970   71.2720  -22.9040 C.3   100  ALA100      0.1597
    100  C          7.4330   70.5020  -23.8530 C.2   100  ALA100      0.2287
    101  O          7.2480   70.8840  -25.0150 O.2   100  ALA100     -0.2864
    102  CB         9.7110   71.5730  -23.5260 C.3   100  ALA100      0.0319
    103  N          7.5050   68.7910  -28.8770 N.3   196  LYS196     -0.1245
    104  CA         8.2970   69.4880  -27.8640 C.3   196  LYS196      0.1561
    105  C          8.4200   70.9700  -28.2790 C.2   196  LYS196      0.2260
    106  O          8.4960   71.2840  -29.4730 O.2   196  LYS196     -0.2867
    107  CB         9.6820   68.8460  -27.7770 C.3   196  LYS196      0.0271
    108  CG        10.6210   69.4320  -26.7240 C.3   196  LYS196      0.0035
    109  CD        12.0280   68.8940  -26.9360 C.3   196  LYS196      0.0206
    110  CE        13.0680   69.7240  -26.2120 C.3   196  LYS196      0.1093
    111  NZ        13.5720   69.0650  -24.9750 N.3   196  LYS196     -0.1314
    112  N         10.2690   74.4780  -28.4520 N.3   198  THR198     -0.1218
    113  CA        11.5820   75.1390  -28.4480 C.3   198  THR198      0.1862
    114  C         11.5410   76.5050  -29.1590 C.2   198  THR198      0.2287
    115  O         11.6130   77.5650  -28.5200 O.2   198  THR198     -0.2866
    116  CB        12.6730   74.2110  -29.0820 C.3   198  THR198      0.1770
    117  OG1       12.0980   73.4260  -30.1350 O.3   198  THR198     -0.2211
    118  CG2       13.1380   73.1480  -28.0830 C.3   198  THR198      0.0375
@<TRIPOS>BOND
     1   117   116    1
     2   106   105    2
     3   114   115    2
     4   114   113    1
     5   116   113    1
     6   116   118    1
     7   103   104    1
     8   112   113    1
     9   105   104    1
    10   104   107    1
    11   107   108    1
    12   109   108    1
    13   109   110    1
    14   110   111    1
    15   101   100    2
    16   100    99    1
    17   102    99    1
    18    99    98    1
    19    91    89   ar
    20    89    88    1
    21    89    90   ar
    22    98    94   am
    23    88    85    1
    24    22    23    1
    25    87    86    2
    26    95    94    2
    27    77    75    1
    28    94    93    1
    29    74    75    2
    30    74    73    1
    31    23    26    1
    32    23    24    1
    33    75    76    1
    34    73    72    1
    35    86    85    1
    36    86    92   am
    37    85    84    1
    38    65    64   ar
    39    26    27    1
    40    29    28    2
    41    72    71    1
    42    24    25    2
    43    71    68    1
    44    93    92    1
    45    93    96    1
    46    64    66   ar
    47    64    63    1
    48    28    27    1
    49    28    30   am
    50    96    97    1
    51    67    68    1
    52    67    60   am
    53    68    69    1
    54    63    62    1
    55     7     6    1
    56    62    59    1
    57     4     3    2
    58    57    56    1
    59    69    70    2
    60    59    60    1
    61    59    58    1
    62    60    61    2
    63    17    16    2
    64     5     6    1
    65     5     2    1
    66    52    51    2
    67    20    21    2
    68    20    19    1
    69     6     8    1
    70     3     2    1
    71     3     9   am
    72    19    18    1
    73    10    11    1
    74    10     9    1
    75    10    13    1
    76    56    55    1
    77     2     1    1
    78    58    51   am
    79    16    18   am
    80    16    15    1
    81    51    50    1
    82    11    12    2
    83    11    14   am
    84    14    15    1
    85    54    55    1
    86    54    53    1
    87    50    53    1
    88    50    49    1
    89    48    47    2
    90    83    82    1
    91    82    79    1
    92    49    47   am
    93    34    33    2
    94    47    46    1
    95    78    79    1
    96    79    80    1
    97    80    81    2
    98    33    32    1
    99    42    43    1
   100    42    39    1
   101    35    36    1
   102    35    32    1
   103    35    37    1
   104    46    45    1
   105    45    40   am
   106    31    32    1
   107    43    44    1
   108    39    40    1
   109    39    38    1
   110    40    41    2
   111    44    38    1
