@<TRIPOS>MOLECULE
tmp/1w78A00.pdb
 223 217 0 0 0
SMALL
GASTEIGER

@<TRIPOS>ATOM
      1  N        -14.3620   12.3550   24.7320 N.3    22  THR22      -0.1203
      2  CA       -13.5080   12.6040   25.9200 C.3    22  THR22       0.1994
      3  C        -12.1280   13.1370   25.4790 C.2    22  THR22       0.2618
      4  O        -11.6810   14.2170   25.9170 O.2    22  THR22      -0.2717
      5  CB       -13.3420   11.3670   26.8050 C.3    22  THR22       0.1784
      6  OG1      -14.6220   10.9980   27.3380 O.3    22  THR22      -0.2211
      7  CG2      -12.3880   11.6720   27.9670 C.3    22  THR22       0.0376
      8  N        -11.4870   12.3700   24.5910 N.am   23  ILE23      -0.1965
      9  CA       -10.2080   12.7360   23.9870 C.3    23  ILE23       0.1727
     10  C        -10.4660   12.9680   22.4950 C.2    23  ILE23       0.2616
     11  O        -11.0830   12.1320   21.8410 O.2    23  ILE23      -0.2715
     12  CB        -9.1110   11.6470   24.1830 C.3    23  ILE23       0.0290
     13  CG1       -8.8550   11.4200   25.6910 C.3    23  ILE23       0.0022
     14  CG2       -7.8460   12.0600   23.4130 C.3    23  ILE23       0.0023
     15  CD1       -7.8680   10.2880   26.0270 C.3    23  ILE23       0.0001
     16  N        -10.0220   14.1160   21.9770 N.am   24  ASP24      -0.1957
     17  CA       -10.1700   14.4720   20.5550 C.3    24  ASP24       0.1840
     18  C         -8.8470   15.1460   20.1250 C.2    24  ASP24       0.2622
     19  O         -8.7030   16.3590   20.2110 O.2    24  ASP24      -0.2715
     20  CB       -11.3660   15.4220   20.3650 C.3    24  ASP24       0.1450
     21  CG       -11.7700   15.5840   18.9070 C.2    24  ASP24       0.3671
     22  OD1      -11.1210   14.9700   18.0370 O.co2  24  ASP24      -0.2456
     23  OD2      -12.7690   16.2970   18.6500 O.co2  24  ASP24      -0.2456
     24  N         -7.8610   14.3430   19.7350 N.am   25  LEU25      -0.1963
     25  CA        -6.5530   14.8980   19.3670 C.3    25  LEU25       0.1728
     26  C         -6.6940   15.7920   18.1450 C.2    25  LEU25       0.2616
     27  O         -7.4510   15.5020   17.2320 O.2    25  LEU25      -0.2715
     28  CB        -5.5510   13.7820   19.0770 C.3    25  LEU25       0.0311
     29  CG        -5.2040   12.8480   20.2380 C.3    25  LEU25       0.0022
     30  CD1       -3.9850   12.0140   19.8530 C.3    25  LEU25       0.0001
     31  CD2       -4.9760   13.5980   21.5620 C.3    25  LEU25       0.0001
     32  N         -5.9520   16.8890   18.1300 N.am   26  GLY26      -0.1955
     33  CA        -5.9960   17.8320   17.0220 C.3    26  GLY26       0.1869
     34  C         -5.6770   19.1680   17.6270 C.2    26  GLY26       0.2309
     35  O         -5.9440   19.3900   18.8160 O.2    26  GLY26      -0.2863
     36  N          6.8360    8.0300   26.2350 N.3    52  THR52      -0.1203
     37  CA         5.9240    7.0080   26.7500 C.3    52  THR52       0.1994
     38  C          5.8880    7.0590   28.2900 C.2    52  THR52       0.2617
     39  O          4.8240    7.1930   28.8890 O.2    52  THR52      -0.2717
     40  CB         6.2700    5.5980   26.2040 C.3    52  THR52       0.1784
     41  OG1        6.1580    5.6340   24.7780 O.3    52  THR52      -0.2211
     42  CG2        5.3070    4.5240   26.7430 C.3    52  THR52       0.0376
     43  N          7.0650    6.9890   28.9120 N.am   53  ASN53      -0.1974
     44  CA         7.1910    7.0570   30.3630 C.3    53  ASN53       0.1688
     45  C          8.3310    8.0040   30.6990 C.2    53  ASN53       0.2292
     46  O          9.2660    8.1340   29.9300 O.2    53  ASN53      -0.2864
     47  CB         7.5510    5.6730   30.9470 C.3    53  ASN53       0.1181
     48  CG         6.4650    4.6580   30.7490 C.2    53  ASN53       0.2629
     49  OD1        6.7170    3.5340   30.3020 O.2    53  ASN53      -0.2716
     50  ND2        5.2660    5.0130   31.1390 N.am   53  ASN53      -0.0877
     51  N          7.8900   11.3770   31.6450 N.3    55  LYS55      -0.1231
     52  CA         7.6140   12.7960   31.4280 C.3    55  LYS55       0.1693
     53  C          7.5400   13.5810   32.7310 C.2    55  LYS55       0.2592
     54  O          8.2370   14.5780   32.9060 O.2    55  LYS55      -0.2718
     55  CB         6.3160   13.0150   30.6090 C.3    55  LYS55       0.0285
     56  CG         6.3220   12.3720   29.2030 C.3    55  LYS55       0.0035
     57  CD         4.9780   12.5680   28.4800 C.3    55  LYS55       0.0206
     58  CE         3.8030   11.8260   29.1300 C.3    55  LYS55       0.1093
     59  NZ         4.0090   10.3620   29.2410 N.3    55  LYS55      -0.1314
     60  N          6.6970   13.1090   33.6520 N.am   56  GLY56      -0.1957
     61  CA         6.4810   13.7880   34.9400 C.3    56  GLY56       0.1869
     62  C          7.7840   14.0600   35.7030 C.2    56  GLY56       0.2309
     63  O          8.0240   15.1780   36.1800 O.2    56  GLY56      -0.2863
     64  N          0.4830   16.0050   34.0220 N.3    78  SER78      -0.1203
     65  CA        -0.7380   15.2020   33.9310 C.3    78  SER78       0.2005
     66  C         -0.3590   13.7250   33.9730 C.2    78  SER78       0.2460
     67  O          0.7320   13.3430   33.5310 O.2    78  SER78      -0.2732
     68  CB        -1.5080   15.5340   32.6480 C.3    78  SER78       0.2103
     69  OG        -0.7160   15.3110   31.4940 O.3    78  SER78      -0.2182
     70  N         -1.2380   12.8720   34.4950 N.am   79  PRO79      -0.2728
     71  CA        -2.5160   13.2510   35.1110 C.3    79  PRO79       0.1401
     72  C         -2.1780   13.6750   36.5510 C.2    79  PRO79       0.2269
     73  O         -1.0310   13.9450   36.8670 O.2    79  PRO79      -0.2865
     74  CB        -3.2870   11.9230   35.1280 C.3    79  PRO79       0.0296
     75  CG        -2.1990   10.8480   35.2360 C.3    79  PRO79       0.0237
     76  CD        -0.9780   11.4180   34.5270 C.3    79  PRO79       0.0939
     77  N         -1.7840   19.6360   38.7860 N.3    87  ARG87      -0.1245
     78  CA        -1.3850   19.7980   37.3800 C.3    87  ARG87       0.1563
     79  C         -0.6920   21.1170   36.9960 C.2    87  ARG87       0.2260
     80  O         -0.0790   21.2120   35.9510 O.2    87  ARG87      -0.2867
     81  CB        -2.5890   19.5930   36.4550 C.3    87  ARG87       0.0307
     82  CG        -3.1850   18.2240   36.5170 C.3    87  ARG87       0.0489
     83  CD        -4.3170   18.0890   35.4870 C.3    87  ARG87       0.2205
     84  NE        -4.8450   16.7440   35.5630 N.pl3  87  ARG87      -0.0865
     85  CZ        -5.1440   15.9720   34.5210 C.cat  87  ARG87       0.5346
     86  NH1       -5.0330   16.4240   33.2710 N.pl3  87  ARG87       0.1354
     87  NH2       -5.6170   14.7560   34.7420 N.pl3  87  ARG87       0.1354
     88  N        -12.0930   20.0250   24.6200 N.3   117  THR117     -0.1203
     89  CA       -12.1380   18.8580   25.4830 C.3   117  THR117      0.1994
     90  C        -11.6040   19.2390   26.8510 C.2   117  THR117      0.2618
     91  O        -11.0760   20.3300   27.0320 O.2   117  THR117     -0.2717
     92  CB       -11.2530   17.7350   24.9440 C.3   117  THR117      0.1784
     93  OG1       -9.8920   18.1880   24.9310 O.3   117  THR117     -0.2211
     94  CG2      -11.6950   17.3270   23.5370 C.3   117  THR117      0.0376
     95  N        -11.7110   18.3100   27.7940 N.am  118  TYR118     -0.1961
     96  CA       -11.2330   18.5040   29.1530 C.3   118  TYR118      0.1771
     97  C         -9.7450   18.8340   29.1270 C.2   118  TYR118      0.2620
     98  O         -9.3240   19.8150   29.7140 O.2   118  TYR118     -0.2715
     99  CB       -11.5080   17.2410   29.9950 C.3   118  TYR118      0.0574
    100  CG       -10.9570   17.1990   31.4270 C.ar  118  TYR118     -0.0198
    101  CD1      -11.8020   17.3530   32.5280 C.ar  118  TYR118     -0.0009
    102  CD2       -9.6040   16.8820   31.6750 C.ar  118  TYR118     -0.0009
    103  CE1      -11.3370   17.2350   33.8380 C.ar  118  TYR118      0.0417
    104  CE2       -9.1180   16.7590   33.0020 C.ar  118  TYR118      0.0417
    105  CZ       -10.0010   16.9680   34.0720 C.ar  118  TYR118      0.1957
    106  OH        -9.5690   16.8680   35.3740 O.3   118  TYR118     -0.2866
    107  N         -8.9410   18.0410   28.4180 N.am  119  PHE119     -0.1960
    108  CA        -7.5070   18.3400   28.3850 C.3   119  PHE119      0.1771
    109  C         -7.2030   19.6370   27.6340 C.2   119  PHE119      0.2619
    110  O         -6.2840   20.3370   28.0030 O.2   119  PHE119     -0.2715
    111  CB        -6.6940   17.1810   27.8040 C.3   119  PHE119      0.0574
    112  CG        -5.1930   17.3230   27.9690 C.ar  119  PHE119     -0.0200
    113  CD1       -4.5790   17.0070   29.1720 C.ar  119  PHE119     -0.0042
    114  CD2       -4.3950   17.7320   26.9000 C.ar  119  PHE119     -0.0042
    115  CE1       -3.1850   17.1000   29.3100 C.ar  119  PHE119     -0.0003
    116  CE2       -3.0090   17.8580   27.0520 C.ar  119  PHE119     -0.0003
    117  CZ        -2.4160   17.5520   28.2610 C.ar  119  PHE119     -0.0000
    118  N         -7.9600   19.9650   26.5890 N.am  120  GLU120     -0.1977
    119  CA        -7.7110   21.2230   25.8640 C.3   120  GLU120      0.1602
    120  C         -7.9980   22.4050   26.7750 C.2   120  GLU120      0.2287
    121  O         -7.2280   23.3590   26.8680 O.2   120  GLU120     -0.2864
    122  CB        -8.5120   21.2860   24.5710 C.3   120  GLU120      0.0415
    123  CG        -7.9620   20.3360   23.5410 C.3   120  GLU120      0.1163
    124  CD        -8.9540   19.9680   22.4530 C.2   120  GLU120      0.3649
    125  OE1      -10.1090   20.4350   22.5130 O.co2 120  GLU120     -0.2457
    126  OE2       -8.5540   19.2220   21.5220 O.co2 120  GLU120     -0.2457
    127  N          4.3790   19.2940   30.0790 N.3   141  GLU141     -0.1231
    128  CA         4.3560   17.8650   29.9210 C.3   141  GLU141      0.1699
    129  C          3.2920   17.5900   28.8630 C.2   141  GLU141      0.2592
    130  O          2.1360   18.0040   29.0170 O.2   141  GLU141     -0.2718
    131  CB         3.9370   17.1610   31.2120 C.3   141  GLU141      0.0402
    132  CG         3.6380   15.6850   30.9580 C.3   141  GLU141      0.1161
    133  CD         3.4540   14.8370   32.2320 C.2   141  GLU141      0.3649
    134  OE1        3.5770   15.3340   33.3710 O.co2 141  GLU141     -0.2457
    135  OE2        3.1730   13.6370   32.0760 O.co2 141  GLU141     -0.2457
    136  N          3.6780   16.8530   27.8130 N.am  142  VAL142     -0.1966
    137  CA         2.7340   16.4880   26.7610 C.3   142  VAL142      0.1727
    138  C          1.6910   15.5370   27.3510 C.2   142  VAL142      0.2617
    139  O          2.0180   14.6320   28.1470 O.2   142  VAL142     -0.2715
    140  CB         3.4360   15.8290   25.5500 C.3   142  VAL142      0.0290
    141  CG1        2.4020   15.3220   24.5180 C.3   142  VAL142      0.0023
    142  CG2        4.4330   16.8180   24.8910 C.3   142  VAL142      0.0023
    143  N          0.4360   15.7580   26.9850 N.am  143  GLY143     -0.1940
    144  CA        -0.6610   14.9270   27.4600 C.3   143  GLY143      0.2014
    145  C         -0.6070   13.5160   26.8460 C.2   143  GLY143      0.2638
    146  O         -0.4950   12.5270   27.5790 O.2   143  GLY143     -0.2714
    147  N         -0.6770   13.4380   25.5220 N.am  144  LEU144     -0.1977
    148  CA        -0.7050   12.1550   24.8240 C.3   144  LEU144      0.1596
    149  C         -0.0970   12.2960   23.4450 C.2   144  LEU144      0.2287
    150  O         -0.6210   13.0200   22.5970 O.2   144  LEU144     -0.2864
    151  CB        -2.1510   11.6640   24.6670 C.3   144  LEU144      0.0297
    152  CG        -2.3310   10.1650   24.3730 C.3   144  LEU144      0.0022
    153  CD1       -3.8350    9.7820   24.5140 C.3   144  LEU144      0.0001
    154  CD2       -1.8240    9.8240   22.9650 C.3   144  LEU144      0.0001
    155  N         -0.2840   15.9030   17.8930 N.3   148  LEU148     -0.1231
    156  CA        -1.6490   16.3880   18.0360 C.3   148  LEU148      0.1693
    157  C         -2.0730   16.7360   19.4540 C.2   148  LEU148      0.2592
    158  O         -3.2230   17.0490   19.6860 O.2   148  LEU148     -0.2718
    159  CB        -2.6300   15.3990   17.4170 C.3   148  LEU148      0.0284
    160  CG        -2.4690   15.1440   15.9170 C.3   148  LEU148      0.0019
    161  CD1       -3.5180   14.1410   15.4570 C.3   148  LEU148      0.0001
    162  CD2       -2.5690   16.4350   15.1240 C.3   148  LEU148      0.0001
    163  N         -1.1350   16.6750   20.3960 N.am  149  ASP149     -0.1960
    164  CA        -1.4120   17.0110   21.7840 C.3   149  ASP149      0.1840
    165  C         -1.6340   18.5180   21.9490 C.2   149  ASP149      0.2621
    166  O         -0.9670   19.3080   21.2880 O.2   149  ASP149     -0.2715
    167  CB        -0.2720   16.5940   22.6920 C.3   149  ASP149      0.1450
    168  CG        -0.6580   16.6780   24.1280 C.2   149  ASP149      0.3671
    169  OD1       -1.5290   15.8780   24.5270 O.co2 149  ASP149     -0.2456
    170  OD2       -0.1880   17.6100   24.8130 O.co2 149  ASP149     -0.2456
    171  N         -2.5680   18.9060   22.8280 N.am  150  ALA150     -0.1977
    172  CA        -2.8840   20.3270   23.0440 C.3   150  ALA150      0.1597
    173  C         -1.6480   21.1490   23.3470 C.2   150  ALA150      0.2287
    174  O         -1.5640   22.3050   22.9820 O.2   150  ALA150     -0.2864
    175  CB        -3.9680   20.5190   24.1350 C.3   150  ALA150      0.0319
    176  N          2.4820    2.2400   24.3700 N.3   167  ASP167     -0.1225
    177  CA         1.3410    2.7450   25.1350 C.3   167  ASP167      0.1805
    178  C          0.5470    3.6190   24.1780 C.2   167  ASP167      0.2597
    179  O          1.1090    4.1780   23.2430 O.2   167  ASP167     -0.2718
    180  CB         1.7160    3.4870   26.4370 C.3   167  ASP167      0.1424
    181  CG         0.5720    3.4420   27.4740 C.2   167  ASP167      0.3668
    182  OD1       -0.5290    2.9790   27.1080 O.co2 167  ASP167     -0.2456
    183  OD2        0.7470    3.8700   28.6370 O.co2 167  ASP167     -0.2456
    184  N         -0.7570    3.7180   24.4120 N.am  168  HIS168     -0.1975
    185  CA        -1.6450    4.5510   23.6060 C.3   168  HIS168      0.1656
    186  C         -1.6390    4.1630   22.1490 C.2   168  HIS168      0.2291
    187  O         -1.7370    5.0150   21.2770 O.2   168  HIS168     -0.2864
    188  CB        -1.2480    6.0150   23.7160 C.3   168  HIS168      0.0771
    189  CG        -1.1600    6.5070   25.1180 C.ar  168  HIS168      0.0820
    190  ND1       -2.2420    6.4930   25.9680 N.ar  168  HIS168     -0.2267
    191  CD2       -0.1140    6.9920   25.8340 C.ar  168  HIS168      0.1154
    192  CE1       -1.8730    6.9840   27.1440 C.ar  168  HIS168      0.1986
    193  NE2       -0.5880    7.2920   27.0870 N.ar  168  HIS168     -0.2212
    194  N          2.1950    1.7840   34.7060 N.3   299  HIS299     -0.1241
    195  CA         0.9190    1.3200   34.1690 C.3   299  HIS299      0.1621
    196  C          0.9940    0.7910   32.7500 C.2   299  HIS299      0.2264
    197  O         -0.0270    0.6920   32.0690 O.2   299  HIS299     -0.2867
    198  CB        -0.2320    2.3280   34.3200 C.3   299  HIS299      0.0745
    199  CG         0.1020    3.7040   33.8410 C.ar  299  HIS299      0.0817
    200  ND1        0.3990    4.0050   32.5290 N.ar  299  HIS299     -0.2268
    201  CD2        0.2010    4.8680   34.5210 C.ar  299  HIS299      0.1154
    202  CE1        0.6420    5.2990   32.4150 C.ar  299  HIS299      0.1986
    203  NE2        0.5550    5.8400   33.6150 N.ar  299  HIS299     -0.2212
    204  N         -5.1360   -0.3720   29.7780 N.3   330  LYS330     -0.1245
    205  CA        -3.7080   -0.6130   29.7770 C.3   330  LYS330      0.1561
    206  C         -3.4950   -2.0800   29.4490 C.2   330  LYS330      0.2260
    207  O         -4.4400   -2.8940   29.4850 O.2   330  LYS330     -0.2867
    208  CB        -3.1330   -0.2630   31.1500 C.3   330  LYS330      0.0271
    209  CG        -3.2750    1.2250   31.4750 C.3   330  LYS330      0.0035
    210  CD        -2.6170    2.0490   30.3570 C.3   330  LYS330      0.0206
    211  CE        -2.4710    3.5130   30.7020 C.3   330  LYS330      0.1093
    212  NZ        -2.0320    4.2800   29.5060 N.3   330  LYS330     -0.1314
    213  N         -2.2830    5.1740   38.9170 N.3   398  PHE398     -0.1241
    214  CA        -2.2210    6.3540   39.7560 C.3   398  PHE398      0.1605
    215  C         -3.2830    6.1560   40.8380 C.2   398  PHE398      0.2264
    216  O         -3.0630    6.4830   42.0090 O.2   398  PHE398     -0.2867
    217  CB        -2.5900    7.5930   38.9350 C.3   398  PHE398      0.0534
    218  CG        -1.4140    8.2520   38.3030 C.ar  398  PHE398     -0.0203
    219  CD1       -0.8960    7.7600   37.1200 C.ar  398  PHE398     -0.0042
    220  CD2       -0.8110    9.3480   38.8920 C.ar  398  PHE398     -0.0042
    221  CE1        0.2100    8.3690   36.5220 C.ar  398  PHE398     -0.0003
    222  CE2        0.2920    9.9550   38.2880 C.ar  398  PHE398     -0.0003
    223  CZ         0.8090    9.4410   37.1220 C.ar  398  PHE398     -0.0000
@<TRIPOS>BOND
     1   162   160    1
     2   161   160    1
     3   160   159    1
     4    33    34    1
     5    33    32    1
     6    27    26    2
     7   159   156    1
     8    34    35    2
     9   155   156    1
    10   156   157    1
    11    22    21   ar
    12    32    26   am
    13    26    25    1
    14    23    21   ar
    15    21    20    1
    16    28    25    1
    17    28    29    1
    18    25    24    1
    19   157   158    2
    20   157   163   am
    21    24    18   am
    22    30    29    1
    23    18    19    2
    24    18    17    1
    25    29    31    1
    26    20    17    1
    27   163   164    1
    28    17    16    1
    29   187   186    2
    30   166   165    2
    31   126   124   ar
    32   164   165    1
    33   164   167    1
    34    11    10    2
    35   165   171   am
    36    16    10   am
    37   186   185    1
    38   124   125   ar
    39   124   123    1
    40    10     9    1
    41   150   149    2
    42   167   168    1
    43   171   172    1
    44   154   152    1
    45   174   173    2
    46   172   173    1
    47   172   175    1
    48   179   178    2
    49    14    12    1
    50   149   148    1
    51    94    92    1
    52   123   122    1
    53   185   188    1
    54   185   184    1
    55   188   189    1
    56     9    12    1
    57     9     8    1
    58   168   169   ar
    59   168   170   ar
    60   178   184   am
    61   178   177    1
    62    12    13    1
    63   176   177    1
    64   152   153    1
    65   152   151    1
    66   141   140    1
    67   122   119    1
    68     8     3   am
    69    88    89    1
    70   151   148    1
    71     1     2    1
    72    41    40    1
    73   148   147    1
    74   142   140    1
    75    93    92    1
    76    92    89    1
    77   189   191   ar
    78   189   190   ar
    79   177   180    1
    80     3     4    2
    81     3     2    1
    82    89    90    1
    83   147   145   am
    84   140   137    1
    85    13    15    1
    86   191   193   ar
    87   119   118    1
    88   119   120    1
    89     2     5    1
    90   190   192   ar
    91    40    42    1
    92    40    37    1
    93    36    37    1
    94   180   181    1
    95   118   109   am
    96    37    38    1
    97   137   138    1
    98   137   136    1
    99   120   121    2
   100     5     6    1
   101     5     7    1
   102   145   144    1
   103   145   146    2
   104    90    91    2
   105    90    95   am
   106   114   116   ar
   107   114   112   ar
   108   143   138   am
   109   143   144    1
   110   116   117   ar
   111   193   192   ar
   112   182   181   ar
   113   138   139    2
   114   181   183   ar
   115   109   110    2
   116   109   108    1
   117    95    96    1
   118   111   112    1
   119   111   108    1
   120   136   129   am
   121   112   113   ar
   122   117   115   ar
   123    38    39    2
   124    38    43   am
   125   108   107    1
   126   107    97   am
   127    57    58    1
   128    57    56    1
   129   129   130    2
   130   129   128    1
   131    43    44    1
   132    97    96    1
   133    97    98    2
   134    58    59    1
   135    96    99    1
   136   113   115   ar
   137    56    55    1
   138   206   207    2
   139   206   205    1
   140   212   211    1
   141   205   204    1
   142   205   208    1
   143   128   127    1
   144   128   131    1
   145    46    45    2
   146    99   100    1
   147    49    48    2
   148   210   211    1
   149   210   209    1
   150    44    45    1
   151    44    47    1
   152    55    52    1
   153    48    47    1
   154    48    50   am
   155   132   131    1
   156   132   133    1
   157   208   209    1
   158   100   102   ar
   159   100   101   ar
   160    52    51    1
   161    52    53    1
   162    69    68    1
   163   102   104   ar
   164   197   196    2
   165   135   133   ar
   166   133   134   ar
   167   202   200   ar
   168   202   203   ar
   169   101   103   ar
   170   200   199   ar
   171    68    65    1
   172    53    54    2
   173    53    60   am
   174   196   195    1
   175   104   105   ar
   176    86    85    1
   177    67    66    2
   178   203   201   ar
   179    60    61    1
   180   103   105   ar
   181   199   198    1
   182   199   201   ar
   183    65    66    1
   184    65    64    1
   185    66    70   am
   186   105   106    1
   187   195   198    1
   188   195   194    1
   189    70    76    1
   190    70    71    1
   191    85    87    1
   192    85    84    2
   193    76    75    1
   194    61    62    1
   195    71    74    1
   196    71    72    1
   197    74    75    1
   198    83    84    1
   199    83    82    1
   200    62    63    2
   201    80    79    2
   202    81    82    1
   203    81    78    1
   204   221   219   ar
   205   221   223   ar
   206    72    73    2
   207    79    78    1
   208   219   218   ar
   209   223   222   ar
   210    78    77    1
   211   222   220   ar
   212   218   220   ar
   213   218   217    1
   214   213   214    1
   215   217   214    1
   216   214   215    1
   217   215   216    2
