@<TRIPOS>MOLECULE
tmp/1w78A01.pdb
 183 179 0 0 0
SMALL
GASTEIGER

@<TRIPOS>ATOM
      1  N          6.8360    8.0300   26.2350 N.3    52  THR52      -0.1203
      2  CA         5.9240    7.0080   26.7500 C.3    52  THR52       0.1994
      3  C          5.8880    7.0590   28.2900 C.2    52  THR52       0.2618
      4  O          4.8240    7.1930   28.8890 O.2    52  THR52      -0.2717
      5  CB         6.2700    5.5980   26.2040 C.3    52  THR52       0.1784
      6  OG1        6.1580    5.6340   24.7780 O.3    52  THR52      -0.2211
      7  CG2        5.3070    4.5240   26.7430 C.3    52  THR52       0.0376
      8  N          7.0650    6.9890   28.9120 N.am   53  ASN53      -0.1960
      9  CA         7.1910    7.0570   30.3630 C.3    53  ASN53       0.1819
     10  C          8.3310    8.0040   30.6990 C.2    53  ASN53       0.2622
     11  O          9.2660    8.1340   29.9300 O.2    53  ASN53      -0.2715
     12  CB         7.5510    5.6730   30.9470 C.3    53  ASN53       0.1195
     13  CG         6.4650    4.6580   30.7490 C.2    53  ASN53       0.2630
     14  OD1        6.7170    3.5340   30.3020 O.2    53  ASN53      -0.2716
     15  ND2        5.2660    5.0130   31.1390 N.am   53  ASN53      -0.0877
     16  N          8.2700    8.6190   31.8810 N.am   54  GLY54      -0.1940
     17  CA         9.3210    9.4990   32.3450 C.3    54  GLY54       0.2014
     18  C          9.0560   10.9890   32.1700 C.2    54  GLY54       0.2639
     19  O          9.9020   11.7910   32.5270 O.2    54  GLY54      -0.2714
     20  N          7.8900   11.3770   31.6450 N.am   55  LYS55      -0.1963
     21  CA         7.6140   12.7960   31.4280 C.3    55  LYS55       0.1728
     22  C          7.5400   13.5810   32.7310 C.2    55  LYS55       0.2617
     23  O          8.2370   14.5780   32.9060 O.2    55  LYS55      -0.2715
     24  CB         6.3160   13.0150   30.6090 C.3    55  LYS55       0.0311
     25  CG         6.3220   12.3720   29.2030 C.3    55  LYS55       0.0038
     26  CD         4.9780   12.5680   28.4800 C.3    55  LYS55       0.0206
     27  CE         3.8030   11.8260   29.1300 C.3    55  LYS55       0.1093
     28  NZ         4.0090   10.3620   29.2410 N.3    55  LYS55      -0.1314
     29  N          6.6970   13.1090   33.6520 N.am   56  GLY56      -0.1940
     30  CA         6.4810   13.7880   34.9400 C.3    56  GLY56       0.2014
     31  C          7.7840   14.0600   35.7030 C.2    56  GLY56       0.2639
     32  O          8.0240   15.1780   36.1800 O.2    56  GLY56      -0.2714
     33  N          8.6150   13.0320   35.8120 N.am   57  THR57      -0.1950
     34  CA         9.8870   13.1510   36.5480 C.3    57  THR57       0.1897
     35  C         10.9500   13.9430   35.7940 C.2    57  THR57       0.2313
     36  O         11.7390   14.6380   36.4130 O.2    57  THR57      -0.2863
     37  CB        10.4500   11.8070   37.0760 C.3    57  THR57       0.1794
     38  OG1       10.6270   10.8820   35.9890 O.3    57  THR57      -0.2208
     39  CG2        9.5170   11.2060   38.1670 C.3    57  THR57       0.0378
     40  N          0.4830   16.0050   34.0220 N.3    78  SER78      -0.1203
     41  CA        -0.7380   15.2020   33.9310 C.3    78  SER78       0.2005
     42  C         -0.3590   13.7250   33.9730 C.2    78  SER78       0.2460
     43  O          0.7320   13.3430   33.5310 O.2    78  SER78      -0.2732
     44  CB        -1.5080   15.5340   32.6480 C.3    78  SER78       0.2103
     45  OG        -0.7160   15.3110   31.4940 O.3    78  SER78      -0.2182
     46  N         -1.2380   12.8720   34.4950 N.am   79  PRO79      -0.2728
     47  CA        -2.5160   13.2510   35.1110 C.3    79  PRO79       0.1401
     48  C         -2.1780   13.6750   36.5510 C.2    79  PRO79       0.2269
     49  O         -1.0310   13.9450   36.8670 O.2    79  PRO79      -0.2865
     50  CB        -3.2870   11.9230   35.1280 C.3    79  PRO79       0.0296
     51  CG        -2.1990   10.8480   35.2360 C.3    79  PRO79       0.0237
     52  CD        -0.9780   11.4180   34.5270 C.3    79  PRO79       0.0939
     53  N          4.3790   19.2940   30.0790 N.3   141  GLU141     -0.1245
     54  CA         4.3560   17.8650   29.9210 C.3   141  GLU141      0.1567
     55  C          3.2920   17.5900   28.8630 C.2   141  GLU141      0.2260
     56  O          2.1360   18.0040   29.0170 O.2   141  GLU141     -0.2867
     57  CB         3.9370   17.1610   31.2120 C.3   141  GLU141      0.0388
     58  CG         3.6380   15.6850   30.9580 C.3   141  GLU141      0.1160
     59  CD         3.4540   14.8370   32.2320 C.2   141  GLU141      0.3649
     60  OE1        3.5770   15.3340   33.3710 O.co2 141  GLU141     -0.2457
     61  OE2        3.1730   13.6370   32.0760 O.co2 141  GLU141     -0.2457
     62  N         11.4540   11.5050   26.3420 N.3   162  THR162     -0.1203
     63  CA        11.9880   10.7390   27.4570 C.3   162  THR162      0.1994
     64  C         12.2620    9.2500   27.2060 C.2   162  THR162      0.2618
     65  O         13.3050    8.7150   27.6040 O.2   162  THR162     -0.2717
     66  CB        11.1300   10.9420   28.7290 C.3   162  THR162      0.1784
     67  OG1        9.8090   10.4360   28.4850 O.3   162  THR162     -0.2211
     68  CG2       11.0750   12.4750   29.1320 C.3   162  THR162      0.0376
     69  N         11.3420    8.6090   26.5100 N.am  163  SER163     -0.1951
     70  CA        11.4360    7.1940   26.1700 C.3   163  SER163      0.1924
     71  C         10.3610    6.9260   25.1180 C.2   163  SER163      0.2314
     72  O          9.4070    7.6910   24.9780 O.2   163  SER163     -0.2863
     73  CB        11.1800    6.3070   27.4160 C.3   163  SER163      0.2116
     74  OG         9.8280    6.4110   27.9020 O.3   163  SER163     -0.2180
     75  N         13.6630    8.3240   38.3290 N.3   248  PRO248     -0.2116
     76  CA        14.3720    7.3470   37.4930 C.3   248  PRO248      0.1372
     77  C         15.6410    7.9020   36.8640 C.2   248  PRO248      0.2244
     78  O         15.6570    9.0030   36.3200 O.2   248  PRO248     -0.2868
     79  CB        13.3230    6.9570   36.4480 C.3   248  PRO248      0.0268
     80  CG        12.0080    7.0820   37.2160 C.3   248  PRO248      0.0207
     81  CD        12.2120    8.3360   38.0500 C.3   248  PRO248      0.0892
     82  N         17.3620    7.3770   34.0660 N.3   250  PRO250     -0.2102
     83  CA        17.3400    7.8400   32.6630 C.3   250  PRO250      0.1504
     84  C         16.7450    9.2500   32.4850 C.2   250  PRO250      0.2575
     85  O         17.1970   10.0090   31.6400 O.2   250  PRO250     -0.2718
     86  CB        16.4320    6.8150   31.9420 C.3   250  PRO250      0.0282
     87  CG        16.3210    5.6650   32.8600 C.3   250  PRO250      0.0208
     88  CD        16.5780    6.1510   34.2690 C.3   250  PRO250      0.0893
     89  N         15.7340    9.5690   33.2910 N.am  251  ASN251     -0.1975
     90  CA        15.0460   10.8500   33.2310 C.3   251  ASN251      0.1688
     91  C         15.8550   11.9890   33.8180 C.2   251  ASN251      0.2292
     92  O         15.7440   13.1190   33.3690 O.2   251  ASN251     -0.2864
     93  CB        13.7010   10.7620   33.9350 C.3   251  ASN251      0.1181
     94  CG        12.8700    9.6140   33.4250 C.2   251  ASN251      0.2629
     95  OD1       13.0900    9.1220   32.3210 O.2   251  ASN251     -0.2716
     96  ND2       11.9500    9.1440   34.2440 N.am  251  ASN251     -0.0877
     97  N          6.4970    7.7720   42.2560 N.3   283  ARG283     -0.1245
     98  CA         7.5030    7.3340   41.2630 C.3   283  ARG283      0.1563
     99  C          8.6280    6.7420   42.0840 C.2   283  ARG283      0.2260
    100  O          9.4460    7.4770   42.6210 O.2   283  ARG283     -0.2867
    101  CB         7.9790    8.5140   40.4090 C.3   283  ARG283      0.0307
    102  CG         7.0120    8.8110   39.2600 C.3   283  ARG283      0.0489
    103  CD         5.6910    9.4290   39.7590 C.3   283  ARG283      0.2205
    104  NE         5.0520   10.1460   38.6540 N.pl3 283  ARG283     -0.0865
    105  CZ         4.0090   10.9480   38.7790 C.cat 283  ARG283      0.5346
    106  NH1        3.4510   11.1510   39.9650 N.pl3 283  ARG283      0.1354
    107  NH2        3.5450   11.5670   37.7060 N.pl3 283  ARG283      0.1354
    108  N          4.5840    2.9650   43.2710 N.3   296  ASP296     -0.1225
    109  CA         5.0260    3.2210   41.9160 C.3   296  ASP296      0.1805
    110  C          3.8510    3.1130   40.9700 C.2   296  ASP296      0.2598
    111  O          3.1200    2.1130   40.9750 O.2   296  ASP296     -0.2718
    112  CB         6.2330    2.4000   41.4530 C.3   296  ASP296      0.1424
    113  CG         6.7870    2.9190   40.1530 C.2   296  ASP296      0.3668
    114  OD1        7.5460    3.9050   40.1950 O.co2 296  ASP296     -0.2456
    115  OD2        6.3940    2.4000   39.0840 O.co2 296  ASP296     -0.2456
    116  N          3.6650    4.1750   40.1960 N.am  297  VAL297     -0.1966
    117  CA         2.5400    4.2870   39.2710 C.3   297  VAL297      0.1727
    118  C          2.7060    3.6170   37.8960 C.2   297  VAL297      0.2616
    119  O          1.9260    3.9250   36.9780 O.2   297  VAL297     -0.2715
    120  CB         2.0720    5.7620   39.0990 C.3   297  VAL297      0.0290
    121  CG1        1.6010    6.3320   40.3960 C.3   297  VAL297      0.0023
    122  CG2        3.1740    6.6460   38.4540 C.3   297  VAL297      0.0023
    123  N          3.6900    2.7300   37.7340 N.am  298  ALA298     -0.1963
    124  CA         3.8680    2.0320   36.4430 C.3   298  ALA298      0.1728
    125  C          2.5310    1.4920   35.9520 C.2   298  ALA298      0.2616
    126  O          1.8120    0.8240   36.6930 O.2   298  ALA298     -0.2715
    127  CB         4.8850    0.8840   36.5580 C.3   298  ALA298      0.0334
    128  N          2.1950    1.7840   34.7060 N.am  299  HIS299     -0.1973
    129  CA         0.9190    1.3200   34.1690 C.3   299  HIS299      0.1656
    130  C          0.9940    0.7910   32.7500 C.2   299  HIS299      0.2291
    131  O         -0.0270    0.6920   32.0690 O.2   299  HIS299     -0.2864
    132  CB        -0.2320    2.3280   34.3200 C.3   299  HIS299      0.0771
    133  CG         0.1020    3.7040   33.8410 C.ar  299  HIS299      0.0820
    134  ND1        0.3990    4.0050   32.5290 N.ar  299  HIS299     -0.2267
    135  CD2        0.2010    4.8680   34.5210 C.ar  299  HIS299      0.1154
    136  CE1        0.6420    5.2990   32.4150 C.ar  299  HIS299      0.1986
    137  NE2        0.5550    5.8400   33.6150 N.ar  299  HIS299     -0.2212
    138  N          6.5090   -1.3720   29.6910 N.3   302  HIS302     -0.1226
    139  CA         7.8490   -0.7380   29.6950 C.3   302  HIS302      0.1752
    140  C          8.1280   -0.1940   31.1320 C.2   302  HIS302      0.2595
    141  O          9.2230   -0.3540   31.6820 O.2   302  HIS302     -0.2718
    142  CB         7.8490    0.4470   28.6610 C.3   302  HIS302      0.0759
    143  CG         9.1430    1.2070   28.5810 C.ar  302  HIS302      0.0818
    144  ND1        9.2810    2.4870   29.0760 N.ar  302  HIS302     -0.2268
    145  CD2       10.3240    0.9050   27.9940 C.ar  302  HIS302      0.1154
    146  CE1       10.4950    2.9320   28.8020 C.ar  302  HIS302      0.1986
    147  NE2       11.1570    1.9760   28.1780 N.ar  302  HIS302     -0.2212
    148  N          7.1190    0.4090   31.7440 N.am  303  ALA303     -0.1980
    149  CA         7.2550    0.9440   33.1070 C.3   303  ALA303      0.1597
    150  C          7.3130   -0.2320   34.0970 C.2   303  ALA303      0.2287
    151  O          8.0880   -0.2050   35.0430 O.2   303  ALA303     -0.2864
    152  CB         6.0810    1.8820   33.4580 C.3   303  ALA303      0.0319
    153  N         10.7590   -1.6290   34.0160 N.3   306  TYR306     -0.1227
    154  CA        11.6630   -0.7380   34.7270 C.3   306  TYR306      0.1736
    155  C         11.4370   -0.9410   36.2490 C.2   306  TYR306      0.2595
    156  O         12.3800   -1.0920   37.0360 O.2   306  TYR306     -0.2718
    157  CB        11.4020    0.7230   34.3320 C.3   306  TYR306      0.0548
    158  CG        12.0350    1.6940   35.3120 C.ar  306  TYR306     -0.0200
    159  CD1       13.4140    1.9270   35.2730 C.ar  306  TYR306     -0.0009
    160  CD2       11.2800    2.2920   36.3550 C.ar  306  TYR306     -0.0009
    161  CE1       14.0230    2.7710   36.1940 C.ar  306  TYR306      0.0417
    162  CE2       11.9170    3.1170   37.3340 C.ar  306  TYR306      0.0417
    163  CZ        13.2870    3.3560   37.2130 C.ar  306  TYR306      0.1957
    164  OH        13.9500    4.1750   38.0990 O.3   306  TYR306     -0.2866
    165  N         10.1800   -0.9510   36.6750 N.am  307  LEU307     -0.1980
    166  CA         9.8750   -1.1350   38.1030 C.3   307  LEU307      0.1596
    167  C         10.4330   -2.4550   38.6210 C.2   307  LEU307      0.2287
    168  O         11.0030   -2.5350   39.7140 O.2   307  LEU307     -0.2864
    169  CB         8.3620   -1.0140   38.3650 C.3   307  LEU307      0.0297
    170  CG         7.8360   -1.3260   39.7640 C.3   307  LEU307      0.0022
    171  CD1        8.4710   -0.3480   40.7770 C.3   307  LEU307      0.0001
    172  CD2        6.3160   -1.2080   39.7980 C.3   307  LEU307      0.0001
    173  N         -2.2830    5.1740   38.9170 N.3   398  PHE398     -0.1241
    174  CA        -2.2210    6.3540   39.7560 C.3   398  PHE398      0.1605
    175  C         -3.2830    6.1560   40.8380 C.2   398  PHE398      0.2264
    176  O         -3.0630    6.4830   42.0090 O.2   398  PHE398     -0.2867
    177  CB        -2.5900    7.5930   38.9350 C.3   398  PHE398      0.0534
    178  CG        -1.4140    8.2520   38.3030 C.ar  398  PHE398     -0.0203
    179  CD1       -0.8960    7.7600   37.1200 C.ar  398  PHE398     -0.0042
    180  CD2       -0.8110    9.3480   38.8920 C.ar  398  PHE398     -0.0042
    181  CE1        0.2100    8.3690   36.5220 C.ar  398  PHE398     -0.0003
    182  CE2        0.2920    9.9550   38.2880 C.ar  398  PHE398     -0.0003
    183  CZ         0.8090    9.4410   37.1220 C.ar  398  PHE398     -0.0000
@<TRIPOS>BOND
     1     6     5    1
     2    72    71    2
     3    71    70    1
     4    70    69    1
     5    70    73    1
     6     5     7    1
     7     5     2    1
     8     1     2    1
     9    62    63    1
    10    69    64   am
    11     2     3    1
    12    64    63    1
    13    64    65    2
    14    73    74    1
    15    63    66    1
    16   145   147   ar
    17   145   143   ar
    18   147   146   ar
    19     3     4    2
    20     3     8   am
    21    26    27    1
    22    26    25    1
    23    67    66    1
    24   143   142    1
    25   143   144   ar
    26   142   139    1
    27    66    68    1
    28   146   144   ar
    29    55    56    2
    30    55    54    1
    31     8     9    1
    32    27    28    1
    33    25    24    1
    34   138   139    1
    35   139   140    1
    36    54    53    1
    37    54    57    1
    38    11    10    2
    39    14    13    2
    40     9    10    1
    41     9    12    1
    42    24    21    1
    43    10    16   am
    44    13    12    1
    45    13    15   am
    46    58    57    1
    47    58    59    1
    48   140   141    2
    49   140   148   am
    50    21    20    1
    51    21    22    1
    52    45    44    1
    53    85    84    2
    54    20    18   am
    55   148   149    1
    56    16    17    1
    57    86    83    1
    58    86    87    1
    59   131   130    2
    60    61    59   ar
    61    18    17    1
    62    18    19    2
    63    59    60   ar
    64    95    94    2
    65   136   134   ar
    66   136   137   ar
    67    84    83    1
    68    84    89   am
    69   134   133   ar
    70    44    41    1
    71    83    82    1
    72    22    23    2
    73    22    29   am
    74   130   129    1
    75    87    88    1
    76   149   152    1
    77   149   150    1
    78    90    89    1
    79    90    91    1
    80    90    93    1
    81    92    91    2
    82    94    93    1
    83    94    96   am
    84    43    42    2
    85   137   135   ar
    86    29    30    1
    87   133   132    1
    88   133   135   ar
    89    41    42    1
    90    41    40    1
    91    42    46   am
    92   153   154    1
    93    82    88    1
    94   150   151    2
    95   129   132    1
    96   129   128    1
    97   157   154    1
    98   157   158    1
    99    46    52    1
   100    46    47    1
   101    52    51    1
   102   128   125   am
   103   154   155    1
   104    30    31    1
   105    47    50    1
   106    47    48    1
   107    50    51    1
   108   159   158   ar
   109   159   161   ar
   110   158   160   ar
   111    31    33   am
   112    31    32    2
   113    35    36    2
   114    35    34    1
   115    33    34    1
   116   125   124    1
   117   125   126    2
   118    38    37    1
   119   161   163   ar
   120   155   165   am
   121   155   156    2
   122    78    77    2
   123   160   162   ar
   124   124   127    1
   125   124   123    1
   126    79    80    1
   127    79    76    1
   128   181   179   ar
   129   181   183   ar
   130    34    37    1
   131    48    49    2
   132   165   166    1
   133    77    76    1
   134   119   118    2
   135    37    39    1
   136   179   178   ar
   137   183   182   ar
   138   163   162   ar
   139   163   164    1
   140    80    81    1
   141    76    75    1
   142   107   105    1
   143   123   118   am
   144   118   117    1
   145    81    75    1
   146   166   169    1
   147   166   167    1
   148   182   180   ar
   149   178   180   ar
   150   178   177    1
   151   169   170    1
   152   122   120    1
   153   167   168    2
   154   104   105    2
   155   104   103    1
   156   105   106    1
   157   173   174    1
   158   177   174    1
   159   115   113   ar
   160   120   117    1
   161   120   121    1
   162   102   103    1
   163   102   101    1
   164   117   116    1
   165   174   175    1
   166   170   172    1
   167   170   171    1
   168   113   114   ar
   169   113   112    1
   170   116   110   am
   171   101    98    1
   172   175   176    2
   173   110   111    2
   174   110   109    1
   175    98    99    1
   176    98    97    1
   177   112   109    1
   178   109   108    1
   179    99   100    2
