@<TRIPOS>MOLECULE
tmp/1w7aA00.pdb
 151 145 0 0 0
SMALL
GASTEIGER

@<TRIPOS>ATOM
      1  N         -1.5350   40.6540   21.0670 N.3   587  VAL587     -0.1245
      2  CA        -1.5510   42.0800   20.7990 C.3   587  VAL587      0.1561
      3  C         -2.5150   42.8520   21.7110 C.2   587  VAL587      0.2260
      4  O         -2.1990   43.9460   22.1370 O.2   587  VAL587     -0.2867
      5  CB        -1.8660   42.3750   19.2970 C.3   587  VAL587      0.0252
      6  CG1       -2.0670   43.8620   19.0630 C.3   587  VAL587      0.0019
      7  CG2       -0.7370   41.8770   18.3990 C.3   587  VAL587      0.0019
      8  N         -0.6780   45.9340   23.8310 N.3   591  LEU591     -0.1245
      9  CA        -1.0860   47.2440   23.3640 C.3   591  LEU591      0.1561
     10  C         -1.7820   48.0910   24.4450 C.2   591  LEU591      0.2260
     11  O         -2.7690   47.6580   25.0390 O.2   591  LEU591     -0.2867
     12  CB        -2.0010   47.0860   22.1470 C.3   591  LEU591      0.0270
     13  CG        -2.2300   48.3250   21.2950 C.3   591  LEU591      0.0019
     14  CD1       -0.9230   49.0760   21.0470 C.3   591  LEU591      0.0001
     15  CD2       -2.8990   47.9430   19.9830 C.3   591  LEU591      0.0001
     16  N         -3.9890   50.5240   24.6800 N.3   593  GLU593     -0.1231
     17  CA        -5.1350   51.2040   24.0750 C.3   593  GLU593      0.1684
     18  C         -6.0680   50.1070   23.5400 C.2   593  GLU593      0.2434
     19  O         -5.6000   49.0370   23.1890 O.2   593  GLU593     -0.2733
     20  CB        -4.7280   52.1470   22.9340 C.3   593  GLU593      0.0402
     21  CG        -3.9960   51.4770   21.7780 C.3   593  GLU593      0.1161
     22  CD        -3.7690   52.4200   20.6020 C.2   593  GLU593      0.3649
     23  OE1       -4.7100   52.6180   19.8010 O.co2 593  GLU593     -0.2457
     24  OE2       -2.6500   52.9690   20.4790 O.co2 593  GLU593     -0.2457
     25  N         -7.3700   50.3750   23.4720 N.am  594  PRO594     -0.2718
     26  CA        -8.3480   49.3700   23.0330 C.3   594  PRO594      0.1535
     27  C         -7.9980   48.6850   21.7130 C.2   594  PRO594      0.2599
     28  O         -7.4950   49.3040   20.7890 O.2   594  PRO594     -0.2715
     29  CB        -9.6290   50.1880   22.8690 C.3   594  PRO594      0.0310
     30  CG        -9.4740   51.3170   23.8270 C.3   594  PRO594      0.0237
     31  CD        -8.0200   51.6560   23.8070 C.3   594  PRO594      0.0939
     32  N         -8.2560   47.3910   21.6490 N.am  595  PHE595     -0.1960
     33  CA        -8.0270   46.6360   20.4390 C.3   595  PHE595      0.1771
     34  C         -9.3270   46.6290   19.6570 C.2   595  PHE595      0.2619
     35  O        -10.3750   46.3230   20.2050 O.2   595  PHE595     -0.2715
     36  CB        -7.6100   45.2110   20.7810 C.3   595  PHE595      0.0574
     37  CG        -7.2600   44.3870   19.5890 C.ar  595  PHE595     -0.0200
     38  CD1       -8.2530   43.7840   18.8300 C.ar  595  PHE595     -0.0042
     39  CD2       -5.9370   44.2160   19.2180 C.ar  595  PHE595     -0.0042
     40  CE1       -7.9250   43.0370   17.7290 C.ar  595  PHE595     -0.0003
     41  CE2       -5.6140   43.4590   18.1230 C.ar  595  PHE595     -0.0003
     42  CZ        -6.6100   42.8760   17.3740 C.ar  595  PHE595     -0.0000
     43  N         -9.2560   46.9670   18.3800 N.am  596  ILE596     -0.1977
     44  CA       -10.4350   46.9740   17.5380 C.3   596  ILE596      0.1596
     45  C        -10.7810   45.5420   17.0760 C.2   596  ILE596      0.2287
     46  O        -10.0830   44.9720   16.2370 O.2   596  ILE596     -0.2864
     47  CB       -10.2220   47.8760   16.3010 C.3   596  ILE596      0.0276
     48  CG1       -9.6450   49.2590   16.6920 C.3   596  ILE596      0.0022
     49  CG2      -11.5280   48.0210   15.5340 C.3   596  ILE596      0.0022
     50  CD1      -10.4540   50.0460   17.7340 C.3   596  ILE596      0.0001
     51  N        -12.5680   42.4980   15.0780 N.3   598  ASN598     -0.1240
     52  CA       -12.9790   42.3850   13.6820 C.3   598  ASN598      0.1653
     53  C        -13.6740   41.0460   13.3790 C.2   598  ASN598      0.2266
     54  O        -13.4960   40.0810   14.1020 O.2   598  ASN598     -0.2867
     55  CB       -11.7700   42.5760   12.7640 C.3   598  ASN598      0.1155
     56  CG       -11.4170   44.0420   12.5640 C.2   598  ASN598      0.2627
     57  OD1      -12.2520   44.8410   12.1280 O.2   598  ASN598     -0.2716
     58  ND2      -10.1790   44.4070   12.8870 N.am  598  ASN598     -0.0877
     59  N          0.0100   50.4350    4.8100 N.3   615  ASN615     -0.1225
     60  CA         1.0660   50.0010    5.6900 C.3   615  ASN615      0.1785
     61  C          0.7370   50.4140    7.1010 C.2   615  ASN615      0.2597
     62  O          0.3150   51.5260    7.3300 O.2   615  ASN615     -0.2718
     63  CB         2.3530   50.6760    5.2750 C.3   615  ASN615      0.1169
     64  CG         2.4920   50.7770    3.7930 C.2   615  ASN615      0.2627
     65  OD1        1.8800   51.6510    3.1520 O.2   615  ASN615     -0.2716
     66  ND2        3.2770   49.8780    3.2160 N.am  615  ASN615     -0.0877
     67  N          0.8930   49.4920    8.0390 N.am  616  MET616     -0.1965
     68  CA         0.5700   49.7280    9.4410 C.3   616  MET616      0.1736
     69  C         -0.9450   49.7860    9.6850 C.2   616  MET616      0.2617
     70  O         -1.3920   50.1230   10.7790 O.2   616  MET616     -0.2715
     71  CB         1.2550   51.0120    9.9400 C.3   616  MET616      0.0427
     72  CG         2.7590   51.0440    9.6930 C.3   616  MET616      0.0599
     73  SD         3.4700   52.7010    9.9810 S.3   616  MET616     -0.1393
     74  CE         3.5050   52.7000   11.7600 C.3   616  MET616      0.0692
     75  N         -1.7260   49.4390    8.6690 N.am  617  GLY617     -0.1940
     76  CA        -3.1700   49.4590    8.7730 C.3   617  GLY617      0.2014
     77  C         -3.7920   48.2490    9.4710 C.2   617  GLY617      0.2639
     78  O         -5.0010   48.2390    9.7000 O.2   617  GLY617     -0.2714
     79  N         -2.9910   47.2200    9.7740 N.am  618  GLY618     -0.1939
     80  CA        -3.4940   46.0570   10.4930 C.3   618  GLY618      0.2014
     81  C         -3.6400   44.7710    9.7130 C.2   618  GLY618      0.2639
     82  O         -4.2220   43.8250   10.2050 O.2   618  GLY618     -0.2714
     83  N         -3.0840   44.7130    8.5220 N.am  619  LYS619     -0.1963
     84  CA        -3.2010   43.5390    7.6800 C.3   619  LYS619      0.1728
     85  C         -2.6290   42.2470    8.3070 C.2   619  LYS619      0.2617
     86  O         -3.3650   41.2750    8.5380 O.2   619  LYS619     -0.2715
     87  CB        -2.5570   43.8100    6.3320 C.3   619  LYS619      0.0311
     88  CG        -3.2670   44.8910    5.5320 C.3   619  LYS619      0.0038
     89  CD        -2.8440   44.8990    4.0770 C.3   619  LYS619      0.0206
     90  CE        -1.3320   45.1780    3.8800 C.3   619  LYS619      0.1093
     91  NZ        -0.8800   46.4420    4.5100 N.3   619  LYS619     -0.1314
     92  N         -1.3360   42.2390    8.5980 N.am  620  SER620     -0.1936
     93  CA        -0.6870   41.0500    9.1820 C.3   620  SER620      0.2055
     94  C         -1.3280   40.6090   10.4980 C.2   620  SER620      0.2643
     95  O         -1.4290   39.4410   10.7720 O.2   620  SER620     -0.2714
     96  CB         0.8070   41.3000    9.4050 C.3   620  SER620      0.2130
     97  OG         1.4860   41.3610    8.1800 O.3   620  SER620     -0.2179
     98  N         -1.7640   41.5540   11.3040 N.am  621  THR621     -0.1950
     99  CA        -2.3850   41.2290   12.5710 C.3   621  THR621      0.1897
    100  C         -3.6950   40.4920   12.3660 C.2   621  THR621      0.2313
    101  O         -4.0170   39.5880   13.1220 O.2   621  THR621     -0.2863
    102  CB        -2.6370   42.5130   13.3440 C.3   621  THR621      0.1794
    103  OG1       -1.3840   43.1360   13.6380 O.3   621  THR621     -0.2208
    104  CG2       -3.2300   42.2470   14.7110 C.3   621  THR621      0.0378
    105  N         -2.8830   36.9720   11.3530 N.3   624  ARG624     -0.1231
    106  CA        -2.3460   36.2200   12.4640 C.3   624  ARG624      0.1694
    107  C         -3.3940   35.8130   13.5290 C.2   624  ARG624      0.2591
    108  O         -3.3490   34.6930   14.0610 O.2   624  ARG624     -0.2718
    109  CB        -1.1880   36.9610   13.0830 C.3   624  ARG624      0.0321
    110  CG        -0.0230   37.0440   12.1100 C.3   624  ARG624      0.0489
    111  CD         1.2990   37.2760   12.7240 C.3   624  ARG624      0.2205
    112  NE         1.4950   38.6510   13.1480 N.pl3 624  ARG624     -0.0865
    113  CZ         2.5630   39.4080   12.8370 C.cat 624  ARG624      0.5346
    114  NH1        3.5370   38.9440   12.0440 N.pl3 624  ARG624      0.1354
    115  NH2        2.6410   40.6560   13.3010 N.pl3 624  ARG624      0.1354
    116  N         -4.3500   36.6860   13.8110 N.am  625  GLN625     -0.1979
    117  CA        -5.3380   36.3770   14.8360 C.3   625  GLN625      0.1601
    118  C         -6.3020   35.2930   14.3540 C.2   625  GLN625      0.2287
    119  O         -6.8600   34.5490   15.1530 O.2   625  GLN625     -0.2864
    120  CB        -6.0680   37.6440   15.2930 C.3   625  GLN625      0.0394
    121  CG        -7.1100   38.1520   14.3420 C.3   625  GLN625      0.0908
    122  CD        -7.6500   39.4940   14.7390 C.2   625  GLN625      0.2608
    123  OE1       -6.8820   40.4270   15.0120 O.2   625  GLN625     -0.2717
    124  NE2       -8.9630   39.6170   14.7530 N.am  625  GLN625     -0.0878
    125  N          1.9970   39.5130    1.5130 N.3   685  GLU685     -0.1245
    126  CA         2.7660   40.3630    0.5840 C.3   685  GLU685      0.1567
    127  C          3.7980   39.5940   -0.2470 C.2   685  GLU685      0.2260
    128  O          4.9650   39.9930   -0.3410 O.2   685  GLU685     -0.2867
    129  CB         3.4150   41.5570    1.3280 C.3   685  GLU685      0.0388
    130  CG         2.3750   42.4570    2.0140 C.3   685  GLU685      0.1160
    131  CD         2.9170   43.7940    2.5070 C.2   685  GLU685      0.3649
    132  OE1        3.7820   44.3720    1.8280 O.co2 685  GLU685     -0.2457
    133  OE2        2.4580   44.2900    3.5630 O.co2 685  GLU685     -0.2457
    134  N         -8.4120   47.1420    5.2780 N.3   738  LEU738     -0.1245
    135  CA        -8.3440   47.8060    6.5700 C.3   738  LEU738      0.1561
    136  C         -8.5440   49.2720    6.3000 C.2   738  LEU738      0.2260
    137  O         -7.8770   49.8370    5.4380 O.2   738  LEU738     -0.2867
    138  CB        -7.0150   47.5390    7.2770 C.3   738  LEU738      0.0270
    139  CG        -6.8460   46.1700    7.9680 C.3   738  LEU738      0.0019
    140  CD1       -7.4750   46.1570    9.3520 C.3   738  LEU738      0.0001
    141  CD2       -7.4250   45.0370    7.1370 C.3   738  LEU738      0.0001
    142  N         -7.9520   50.3860   11.8380 N.3   751  HIS751     -0.1241
    143  CA        -7.7500   48.9880   12.2470 C.3   751  HIS751      0.1621
    144  C         -8.9830   48.0980   12.1120 C.2   751  HIS751      0.2264
    145  O         -9.0330   47.0470   12.7290 O.2   751  HIS751     -0.2867
    146  CB        -7.2550   48.9000   13.7000 C.3   751  HIS751      0.0745
    147  CG        -5.9910   49.6470   13.9520 C.ar  751  HIS751      0.0817
    148  ND1       -4.8290   49.3960   13.2570 N.ar  751  HIS751     -0.2268
    149  CD2       -5.7030   50.6430   14.8230 C.ar  751  HIS751      0.1154
    150  CE1       -3.8790   50.2070   13.6880 C.ar  751  HIS751      0.1986
    151  NE2       -4.3830   50.9690   14.6420 N.ar  751  HIS751     -0.2212
@<TRIPOS>BOND
     1   128   127    2
     2   127   126    1
     3   126   129    1
     4   126   125    1
     5   129   130    1
     6   132   131   ar
     7   130   131    1
     8   131   133   ar
     9    65    64    2
    10    66    64   am
    11    64    63    1
    12    90    89    1
    13    90    91    1
    14    89    88    1
    15    59    60    1
    16    63    60    1
    17   134   135    1
    18   137   136    2
    19    88    87    1
    20    60    61    1
    21   136   135    1
    22    87    84    1
    23   135   138    1
    24    61    62    2
    25    61    67   am
    26   141   139    1
    27   138   139    1
    28    84    85    1
    29    84    83    1
    30   139   140    1
    31    67    68    1
    32    97    96    1
    33    85    86    2
    34    85    92   am
    35    83    81   am
    36    92    93    1
    37    75    76    1
    38    75    69   am
    39    76    77    1
    40    93    96    1
    41    93    94    1
    42    68    69    1
    43    68    71    1
    44    77    78    2
    45    77    79   am
    46    69    70    2
    47    72    71    1
    48    72    73    1
    49    81    82    2
    50    81    80    1
    51    79    80    1
    52    73    74    1
    53    94    95    2
    54    94    98   am
    55    98    99    1
    56   105   106    1
    57   142   143    1
    58   114   113    1
    59   110   111    1
    60   110   109    1
    61   144   143    1
    62   144   145    2
    63    57    56    2
    64   143   146    1
    65   100    99    1
    66   100   101    2
    67   106   109    1
    68   106   107    1
    69    56    55    1
    70    56    58   am
    71    99   102    1
    72   111   112    1
    73    55    52    1
    74   113   112    2
    75   113   115    1
    76   148   150   ar
    77   148   147   ar
    78   102   103    1
    79   102   104    1
    80    53    52    1
    81    53    54    2
    82   107   116   am
    83   107   108    2
    84    52    51    1
    85   150   151   ar
    86   146   147    1
    87   116   117    1
    88   147   149   ar
    89   121   122    1
    90   121   120    1
    91   118   117    1
    92   118   119    2
    93   151   149   ar
    94   122   124   am
    95   122   123    2
    96   117   120    1
    97    49    47    1
    98    46    45    2
    99    47    48    1
   100    47    44    1
   101    48    50    1
   102    45    44    1
   103    42    40   ar
   104    42    41   ar
   105    44    43    1
   106    40    38   ar
   107    41    39   ar
   108    43    34   am
   109     7     5    1
   110    38    37   ar
   111     6     5    1
   112    39    37   ar
   113     5     2    1
   114    37    36    1
   115    34    35    2
   116    34    33    1
   117    23    22   ar
   118    15    13    1
   119    33    36    1
   120    33    32    1
   121    24    22   ar
   122    22    21    1
   123    28    27    2
   124     2     1    1
   125     2     3    1
   126    14    13    1
   127    13    12    1
   128    32    27   am
   129     3     4    2
   130    27    26    1
   131    21    20    1
   132    12     9    1
   133    29    26    1
   134    29    30    1
   135    20    17    1
   136    26    25    1
   137    19    18    2
   138     9     8    1
   139     9    10    1
   140    25    18   am
   141    25    31    1
   142    18    17    1
   143    31    30    1
   144    17    16    1
   145    10    11    2
