@<TRIPOS>MOLECULE
tmp/1w7cA00.pdb
 107 103 0 0 0
SMALL
GASTEIGER

@<TRIPOS>ATOM
      1  N         37.7710    2.6090   15.6290 N.3    59  LEU59      -0.1231
      2  CA        37.6540    1.2990   15.0120 C.3    59  LEU59       0.1693
      3  C         37.4730    1.5670   13.5240 C.2    59  LEU59       0.2592
      4  O         36.4090    2.0430   13.1040 O.2    59  LEU59      -0.2718
      5  CB        36.4600    0.5360   15.5910 C.3    59  LEU59       0.0284
      6  CG        36.2380   -0.8450   15.0080 C.3    59  LEU59       0.0019
      7  CD1       37.3870   -1.7850   15.3200 C.3    59  LEU59       0.0001
      8  CD2       34.9310   -1.4150   15.5580 C.3    59  LEU59       0.0001
      9  N         38.5090    1.3130   12.7410 N.am   60  LYS60      -0.1966
     10  CA        38.5240    1.7610   11.3400 C.3    60  LYS60       0.1713
     11  C         37.4440    1.0240   10.5280 C.2    60  LYS60       0.2458
     12  O         37.0630   -0.1050   10.8350 O.2    60  LYS60      -0.2730
     13  CB        39.8910    1.5510   10.7140 C.3    60  LYS60       0.0311
     14  CG        40.9380    2.5420   11.2480 C.3    60  LYS60       0.0038
     15  CD        42.2520    2.3400   10.5900 C.3    60  LYS60       0.0206
     16  CE        43.3100    3.2320   11.1750 C.3    60  LYS60       0.1093
     17  NZ        43.7170    2.7880   12.5500 N.3    60  LYS60      -0.1314
     18  N         36.9320    1.6690    9.4860 N.am   61  PRO61      -0.2716
     19  CA        35.9290    1.0200    8.6490 C.3    61  PRO61       0.1536
     20  C         36.4180   -0.2630    7.9820 C.2    61  PRO61       0.2598
     21  O         37.5910   -0.4460    7.7780 O.2    61  PRO61      -0.2715
     22  CB        35.5970    2.0950    7.6150 C.3    61  PRO61       0.0310
     23  CG        35.8730    3.3900    8.3010 C.3    61  PRO61       0.0237
     24  CD        37.1650    3.0660    9.0790 C.3    61  PRO61       0.0939
     25  N         35.4660   -1.1150    7.6590 N.am   62  ASN62      -0.1973
     26  CA        35.7470   -2.2750    6.8690 C.3    62  ASN62       0.1688
     27  C         35.9800   -1.8660    5.4110 C.2    62  ASN62       0.2292
     28  O         35.5570   -0.8050    4.9810 O.2    62  ASN62      -0.2864
     29  CB        34.6140   -3.2580    6.9830 C.3    62  ASN62       0.1181
     30  CG        34.5990   -4.0080    8.2940 C.2    62  ASN62       0.2629
     31  OD1       35.6110   -4.1010    9.0040 O.2    62  ASN62      -0.2716
     32  ND2       33.4170   -4.5320    8.6190 N.am   62  ASN62      -0.0877
     33  N         32.9690   -1.3050    2.6440 N.3    65  GLU65      -0.1245
     34  CA        32.1880   -0.0860    2.9160 C.3    65  GLU65       0.1567
     35  C         33.0500    1.1310    2.6480 C.2    65  GLU65       0.2260
     36  O         32.5730    2.1440    2.1260 O.2    65  GLU65      -0.2867
     37  CB        31.5920   -0.0450    4.3420 C.3    65  GLU65       0.0388
     38  CG        32.5740   -0.0760    5.5020 C.3    65  GLU65       0.1160
     39  CD        31.8960    0.0280    6.8750 C.2    65  GLU65       0.3649
     40  OE1       30.6300    0.0560    6.9430 O.co2  65  GLU65      -0.2457
     41  OE2       32.6330    0.1050    7.8870 O.co2  65  GLU65      -0.2457
     42  N         29.9860    3.7750    9.3140 N.3    78  PRO78      -0.2116
     43  CA        29.7480    4.1410   10.7150 C.3    78  PRO78       0.1372
     44  C         31.0490    4.5460   11.4110 C.2    78  PRO78       0.2244
     45  O         32.1240    3.9720   11.1700 O.2    78  PRO78      -0.2868
     46  CB        29.1770    2.8600   11.3200 C.3    78  PRO78       0.0268
     47  CG        28.5660    2.1560   10.1750 C.3    78  PRO78       0.0207
     48  CD        29.4740    2.4330    9.0040 C.3    78  PRO78       0.0892
     49  N         32.8470    4.4590   14.7410 N.3    80  ASN80      -0.1240
     50  CA        32.8440    3.6160   15.9230 C.3    80  ASN80       0.1653
     51  C         34.1710    3.7640   16.6490 C.2    80  ASN80       0.2266
     52  O         35.2150    4.0220   16.0210 O.2    80  ASN80      -0.2867
     53  CB        32.7060    2.1540   15.5140 C.3    80  ASN80       0.1155
     54  CG        31.3440    1.8180   14.9480 C.2    80  ASN80       0.2627
     55  OD1       30.3150    2.1660   15.5170 O.2    80  ASN80      -0.2716
     56  ND2       31.3320    1.1010   13.8280 N.am   80  ASN80      -0.0877
     57  N         33.1840   -2.3870   21.5450 N.3    99  LYS99      -0.1245
     58  CA        32.8340   -1.4510   20.4810 C.3    99  LYS99       0.1561
     59  C         31.8040   -0.4780   21.0140 C.2    99  LYS99       0.2260
     60  O         30.7880   -0.9010   21.5890 O.2    99  LYS99      -0.2867
     61  CB        32.2710   -2.2060   19.2790 C.3    99  LYS99       0.0271
     62  CG        31.7970   -1.3200   18.1130 C.3    99  LYS99       0.0035
     63  CD        31.3260   -2.2040   16.9580 C.3    99  LYS99       0.0206
     64  CE        30.1690   -1.6120   16.1820 C.3    99  LYS99       0.1093
     65  NZ        29.9820   -2.3040   14.8640 N.3    99  LYS99      -0.1314
     66  N         29.1660   -3.0890   22.8860 N.3   112  GLU112     -0.1231
     67  CA        29.1400   -4.5220   22.6400 C.3   112  GLU112      0.1684
     68  C         30.5340   -5.1070   22.7750 C.2   112  GLU112      0.2434
     69  O         31.5050   -4.4400   22.4490 O.2   112  GLU112     -0.2733
     70  CB        28.6600   -4.8150   21.2140 C.3   112  GLU112      0.0402
     71  CG        27.3140   -4.2090   20.8310 C.3   112  GLU112      0.1161
     72  CD        27.0450   -4.3100   19.3390 C.2   112  GLU112      0.3649
     73  OE1       27.9110   -4.8490   18.6030 O.co2 112  GLU112     -0.2457
     74  OE2       25.9720   -3.8450   18.9000 O.co2 112  GLU112     -0.2457
     75  N         30.6490   -6.3680   23.1850 N.am  113  PRO113     -0.2729
     76  CA        31.9320   -7.0620   23.0840 C.3   113  PRO113      0.1401
     77  C         32.4760   -6.9990   21.6500 C.2   113  PRO113      0.2269
     78  O         31.7360   -7.1120   20.6820 O.2   113  PRO113     -0.2865
     79  CB        31.6010   -8.4990   23.5070 C.3   113  PRO113      0.0296
     80  CG        30.3600   -8.4090   24.2930 C.3   113  PRO113      0.0237
     81  CD        29.6000   -7.2470   23.7320 C.3   113  PRO113      0.0939
     82  N         36.0090   -9.3290   16.4680 N.3   116  PHE116     -0.1241
     83  CA        36.0030   -9.8970   15.1230 C.3   116  PHE116      0.1605
     84  C         37.4200  -10.0440   14.5330 C.2   116  PHE116      0.2264
     85  O         37.6460  -10.9010   13.6890 O.2   116  PHE116     -0.2867
     86  CB        35.0450   -9.1590   14.1750 C.3   116  PHE116      0.0534
     87  CG        35.4760   -7.7550   13.7690 C.ar  116  PHE116     -0.0203
     88  CD1       36.3980   -7.5980   12.7500 C.ar  116  PHE116     -0.0042
     89  CD2       34.9200   -6.6120   14.3480 C.ar  116  PHE116     -0.0042
     90  CE1       36.7900   -6.3380   12.3310 C.ar  116  PHE116     -0.0003
     91  CE2       35.3280   -5.3420   13.9410 C.ar  116  PHE116     -0.0003
     92  CZ        36.2530   -5.2100   12.9240 C.ar  116  PHE116     -0.0000
     93  N         38.3900   -8.4580    6.5090 N.3   606  ASP606     -0.1225
     94  CA        38.1940   -7.4920    7.5840 C.3   606  ASP606      0.1805
     95  C         38.4920   -8.0920    8.9510 C.2   606  ASP606      0.2598
     96  O         38.8900   -7.3340    9.8540 O.2   606  ASP606     -0.2718
     97  CB        36.7730   -6.9630    7.5610 C.3   606  ASP606      0.1424
     98  CG        36.4770   -6.1380    6.3560 C.2   606  ASP606      0.3668
     99  OD1       37.3130   -5.3160    5.9070 O.co2 606  ASP606     -0.2456
    100  OD2       35.3660   -6.2140    5.8080 O.co2 606  ASP606     -0.2456
    101  N         38.2920   -9.3930    9.1090 N.am  607  THR607     -0.1953
    102  CA        38.6330  -10.1040   10.3430 C.3   607  THR607      0.1897
    103  C         40.1360  -10.3340   10.5030 C.2   607  THR607      0.2313
    104  O         40.5700  -10.7660   11.5450 O.2   607  THR607     -0.2863
    105  CB        37.9280  -11.4640   10.3920 C.3   607  THR607      0.1794
    106  OG1       38.2130  -12.1780    9.1750 O.3   607  THR607     -0.2208
    107  CG2       36.4290  -11.3430   10.4680 C.3   607  THR607      0.0378
@<TRIPOS>BOND
     1    36    35    2
     2    33    34    1
     3    35    34    1
     4    34    37    1
     5    37    38    1
     6    28    27    2
     7    27    26    1
     8    38    39    1
     9   100    98   ar
    10    99    98   ar
    11    98    97    1
    12    93    94    1
    13    26    29    1
    14    26    25    1
    15    39    40   ar
    16    39    41   ar
    17    29    30    1
    18    97    94    1
    19    94    95    1
    20    22    23    1
    21    22    19    1
    22    25    20   am
    23    21    20    2
    24    20    19    1
    25    30    32   am
    26    30    31    2
    27    23    24    1
    28    19    18    1
    29    95   101   am
    30    95    96    2
    31    48    42    1
    32    48    47    1
    33    24    18    1
    34   101   102    1
    35   106   105    1
    36    42    43    1
    37    18    11   am
    38    47    46    1
    39   102   105    1
    40   102   103    1
    41   105   107    1
    42   103   104    2
    43    11    12    2
    44    11    10    1
    45    15    16    1
    46    15    14    1
    47    13    14    1
    48    13    10    1
    49    43    46    1
    50    43    44    1
    51    45    44    2
    52    16    17    1
    53    10     9    1
    54    90    88   ar
    55    90    92   ar
    56     9     3   am
    57    88    87   ar
    58    92    91   ar
    59     4     3    2
    60     3     2    1
    61    85    84    2
    62    87    86    1
    63    87    89   ar
    64    56    54   am
    65    91    89   ar
    66    86    83    1
    67    84    83    1
    68    49    50    1
    69    65    64    1
    70    54    53    1
    71    54    55    2
    72     6     7    1
    73     6     8    1
    74     6     5    1
    75     2     5    1
    76     2     1    1
    77    83    82    1
    78    53    50    1
    79    50    51    1
    80    52    51    2
    81    64    63    1
    82    63    62    1
    83    62    61    1
    84    73    72   ar
    85    74    72   ar
    86    61    58    1
    87    72    71    1
    88    58    59    1
    89    58    57    1
    90    78    77    2
    91    71    70    1
    92    59    60    2
    93    70    67    1
    94    77    76    1
    95    69    68    2
    96    67    68    1
    97    67    66    1
    98    68    75   am
    99    76    75    1
   100    76    79    1
   101    75    81    1
   102    79    80    1
   103    81    80    1
