@<TRIPOS>MOLECULE
tmp/1w7fA00.pdb
 104 95 0 0 0
SMALL
GASTEIGER

@<TRIPOS>ATOM
      1  N         -1.5020    0.4160   16.6530 N.3    39  SER39      -0.1217
      2  CA        -0.3000   -0.3520   16.3270 C.3    39  SER39       0.1889
      3  C          0.3700   -0.1620   14.9770 C.2    39  SER39       0.2288
      4  O          1.4450   -0.7070   14.7460 O.2    39  SER39      -0.2866
      5  CB        -0.5530   -1.8390   16.5450 C.3    39  SER39       0.2089
      6  OG        -0.6680   -2.0900   17.9340 O.3    39  SER39      -0.2183
      7  N          3.9250    0.7870   15.0170 N.3    42  LYS42      -0.1245
      8  CA         4.9860   -0.1980   15.2090 C.3    42  LYS42       0.1561
      9  C          5.8440   -0.3450   13.9520 C.2    42  LYS42       0.2260
     10  O          7.0540   -0.5420   14.0440 O.2    42  LYS42      -0.2867
     11  CB         4.3850   -1.5450   15.6280 C.3    42  LYS42       0.0271
     12  CG         3.8550   -1.5060   17.0560 C.3    42  LYS42       0.0035
     13  CD         3.1170   -2.7730   17.4960 C.3    42  LYS42       0.0206
     14  CE         2.5310   -2.5640   18.9010 C.3    42  LYS42       0.1093
     15  NZ         1.3410   -3.3950   19.1920 N.3    42  LYS42      -0.1314
     16  N         -0.5850   -6.7320   26.1080 N.3    72  TYR72      -0.1241
     17  CA        -0.6400   -7.6960   25.0170 C.3    72  TYR72       0.1605
     18  C          0.7880   -8.0460   24.6350 C.2    72  TYR72       0.2264
     19  O          1.4070   -7.3580   23.8240 O.2    72  TYR72      -0.2867
     20  CB        -1.3720   -7.0770   23.8300 C.3    72  TYR72       0.0534
     21  CG        -1.6330   -8.0410   22.7060 C.ar   72  TYR72      -0.0201
     22  CD1       -2.5530   -9.0810   22.8510 C.ar   72  TYR72      -0.0009
     23  CD2       -0.9600   -7.9170   21.4900 C.ar   72  TYR72      -0.0009
     24  CE1       -2.7950   -9.9720   21.8100 C.ar   72  TYR72       0.0417
     25  CE2       -1.1920   -8.8030   20.4410 C.ar   72  TYR72       0.0417
     26  CZ        -2.1080   -9.8270   20.6050 C.ar   72  TYR72       0.1957
     27  OH        -2.3300  -10.7030   19.5680 O.3    72  TYR72      -0.2866
     28  N          2.3400   -7.9950   16.6530 N.3    97  SER97      -0.1217
     29  CA         1.8740   -6.7550   17.2620 C.3    97  SER97       0.1889
     30  C          2.0600   -6.7600   18.7820 C.2    97  SER97       0.2288
     31  O          1.2390   -6.2190   19.5280 O.2    97  SER97      -0.2866
     32  CB         0.4020   -6.5290   16.9090 C.3    97  SER97       0.2089
     33  OG         0.1250   -5.1450   16.8600 O.3    97  SER97      -0.2183
     34  N          2.9530   -5.7150   22.2290 N.3    99  ASN99      -0.1240
     35  CA         3.0550   -4.3930   22.8520 C.3    99  ASN99       0.1653
     36  C          4.3090   -4.1070   23.6610 C.2    99  ASN99       0.2266
     37  O          4.7520   -2.9630   23.7340 O.2    99  ASN99      -0.2867
     38  CB         1.8420   -4.1190   23.7330 C.3    99  ASN99       0.1155
     39  CG         0.6590   -3.6320   22.9440 C.2    99  ASN99       0.2627
     40  OD1        0.8070   -3.1770   21.8120 O.2    99  ASN99      -0.2716
     41  ND2       -0.5220   -3.7050   23.5380 N.am   99  ASN99      -0.0877
     42  N          2.8770    1.8180   24.6740 N.3   133  GLU133     -0.1245
     43  CA         1.7620    0.8870   24.6030 C.3   133  GLU133      0.1567
     44  C          1.4440    0.4610   26.0310 C.2   133  GLU133      0.2260
     45  O          2.3520    0.2600   26.8320 O.2   133  GLU133     -0.2867
     46  CB         2.1430   -0.3440   23.7670 C.3   133  GLU133      0.0388
     47  CG         2.3250   -0.0590   22.2830 C.3   133  GLU133      0.1160
     48  CD         1.0110   -0.0220   21.5130 C.2   133  GLU133      0.3649
     49  OE1       -0.0640    0.1820   22.1250 O.co2 133  GLU133     -0.2457
     50  OE2        1.0610   -0.1910   20.2770 O.co2 133  GLU133     -0.2457
     51  N         -3.3020    4.1530   22.7520 N.3   137  ASN137     -0.1240
     52  CA        -4.6010    3.8390   22.1460 C.3   137  ASN137      0.1653
     53  C         -5.7330    4.6810   22.7510 C.2   137  ASN137      0.2266
     54  O         -6.8160    4.7910   22.1740 O.2   137  ASN137     -0.2867
     55  CB        -4.9140    2.3470   22.3030 C.3   137  ASN137      0.1155
     56  CG        -3.9600    1.4580   21.5150 C.2   137  ASN137      0.2627
     57  OD1       -3.8000    1.6220   20.3080 O.2   137  ASN137     -0.2716
     58  ND2       -3.3250    0.5090   22.2020 N.am  137  ASN137     -0.0877
     59  N         -1.3330  -10.8070   11.7580 N.3   183  THR183     -0.1218
     60  CA        -2.5720  -10.1850   12.2340 C.3   183  THR183      0.1862
     61  C         -3.5240   -9.5190   11.2370 C.2   183  THR183      0.2287
     62  O         -4.5680   -9.0040   11.6440 O.2   183  THR183     -0.2866
     63  CB        -2.2500   -9.1160   13.3120 C.3   183  THR183      0.1770
     64  OG1       -1.5920   -8.0090   12.6870 O.3   183  THR183     -0.2211
     65  CG2       -1.3150   -9.6760   14.3860 C.3   183  THR183      0.0375
     66  N         -1.2890   -3.8770   11.0440 N.3   202  THR202     -0.1203
     67  CA        -2.6180   -3.5420   11.5380 C.3   202  THR202      0.1994
     68  C         -2.6180   -2.7190   12.8210 C.2   202  THR202      0.2618
     69  O         -1.5770   -2.5170   13.4620 O.2   202  THR202     -0.2717
     70  CB        -3.4210   -4.8180   11.8250 C.3   202  THR202      0.1784
     71  OG1       -2.7980   -5.5290   12.9050 O.3   202  THR202     -0.2211
     72  CG2       -3.4540   -5.7140   10.5940 C.3   202  THR202      0.0376
     73  N         -3.8090   -2.2530   13.1850 N.am  203  GLY203     -0.1942
     74  CA        -3.9750   -1.4820   14.3990 C.3   203  GLY203      0.2014
     75  C         -5.4320   -1.4920   14.8330 C.2   203  GLY203      0.2638
     76  O         -6.3290   -1.6570   14.0070 O.2   203  GLY203     -0.2714
     77  N         -5.6620   -1.3410   16.1360 N.am  204  ALA204     -0.1977
     78  CA        -7.0080   -1.2870   16.7110 C.3   204  ALA204      0.1597
     79  C         -6.9330   -0.4080   17.9610 C.2   204  ALA204      0.2287
     80  O         -6.0250   -0.5540   18.7830 O.2   204  ALA204     -0.2864
     81  CB        -7.5170   -2.6960   17.0660 C.3   204  ALA204      0.0319
     82  N         -9.8470    0.8870   13.8170 N.3   210  ARG210     -0.1245
     83  CA        -9.3400   -0.3110   13.1610 C.3   210  ARG210      0.1563
     84  C         -8.6200    0.1550   11.9080 C.2   210  ARG210      0.2260
     85  O         -9.2460    0.6610   10.9770 O.2   210  ARG210     -0.2867
     86  CB       -10.5070   -1.2420   12.8050 C.3   210  ARG210      0.0307
     87  CG       -10.1220   -2.6370   12.3130 C.3   210  ARG210      0.0489
     88  CD        -9.0850   -3.2810   13.2180 C.3   210  ARG210      0.2205
     89  NE        -8.9290   -4.7160   12.9840 N.pl3 210  ARG210     -0.0865
     90  CZ        -7.8660   -5.4190   13.3620 C.cat 210  ARG210      0.5346
     91  NH1       -6.8590   -4.8190   13.9790 N.pl3 210  ARG210      0.1354
     92  NH2       -7.8160   -6.7240   13.1520 N.pl3 210  ARG210      0.1354
     93  N        -15.2700   -3.0070   16.3460 N.3   239  TYR239     -0.1241
     94  CA       -14.9800   -2.7760   14.9420 C.3   239  TYR239      0.1605
     95  C        -15.2960   -4.0370   14.1340 C.2   239  TYR239      0.2264
     96  O        -15.4530   -5.1200   14.7000 O.2   239  TYR239     -0.2867
     97  CB       -13.5050   -2.3700   14.7730 C.3   239  TYR239      0.0534
     98  CG       -12.4890   -3.4000   15.2520 C.ar  239  TYR239     -0.0201
     99  CD1      -12.2460   -4.5670   14.5270 C.ar  239  TYR239     -0.0009
    100  CD2      -11.7760   -3.2060   16.4400 C.ar  239  TYR239     -0.0009
    101  CE1      -11.3190   -5.5160   14.9720 C.ar  239  TYR239      0.0417
    102  CE2      -10.8500   -4.1480   16.8900 C.ar  239  TYR239      0.0417
    103  CZ       -10.6280   -5.2950   16.1530 C.ar  239  TYR239      0.1957
    104  OH        -9.7030   -6.2110   16.5850 O.3   239  TYR239     -0.2866
@<TRIPOS>BOND
     1    72    70    1
     2    85    84    2
     3    66    67    1
     4    61    62    2
     5    61    60    1
     6    67    70    1
     7    67    68    1
     8    59    60    1
     9    70    71    1
    10    84    83    1
    11    60    63    1
    12    87    86    1
    13    87    88    1
    14    64    63    1
    15    86    83    1
    16    68    73   am
    17    68    69    2
    18    89    88    1
    19    89    90    2
    20    92    90    1
    21    83    82    1
    22    73    74    1
    23    63    65    1
    24    90    91    1
    25     9    10    2
    26     9     8    1
    27    76    75    2
    28    95    96    2
    29    95    94    1
    30    74    75    1
    31    99   101   ar
    32    99    98   ar
    33     4     3    2
    34    97    94    1
    35    97    98    1
    36    75    77   am
    37    94    93    1
    38   101   103   ar
    39     3     2    1
    40     7     8    1
    41     8    11    1
    42    98   100   ar
    43    11    12    1
    44    77    78    1
    45   103   104    1
    46   103   102   ar
    47     2     5    1
    48     2     1    1
    49   100   102   ar
    50     5     6    1
    51    28    29    1
    52    78    81    1
    53    78    79    1
    54    33    32    1
    55    32    29    1
    56    12    13    1
    57    29    30    1
    58    13    14    1
    59    79    80    2
    60    30    31    2
    61    14    15    1
    62    27    26    1
    63    50    48   ar
    64    57    56    2
    65    25    26   ar
    66    25    23   ar
    67    26    24   ar
    68    23    21   ar
    69    48    49   ar
    70    48    47    1
    71    56    58   am
    72    56    55    1
    73    24    22   ar
    74    40    39    2
    75    52    55    1
    76    52    53    1
    77    52    51    1
    78    54    53    2
    79    34    35    1
    80    47    46    1
    81    21    22   ar
    82    21    20    1
    83    35    36    1
    84    35    38    1
    85    39    41   am
    86    39    38    1
    87    36    37    2
    88    46    43    1
    89    19    18    2
    90    20    17    1
    91    43    42    1
    92    43    44    1
    93    18    17    1
    94    17    16    1
    95    44    45    2
