@<TRIPOS>MOLECULE
tmp/1w7gA01.pdb
 214 211 0 0 0
SMALL
GASTEIGER

@<TRIPOS>ATOM
      1  N         14.3070   -8.1740    9.0160 N.3    27  LEU27      -0.1245
      2  CA        15.3480   -8.7540    9.8420 C.3    27  LEU27       0.1561
      3  C         15.2850   -8.2640   11.2790 C.2    27  LEU27       0.2260
      4  O         15.7430   -8.9490   12.1860 O.2    27  LEU27      -0.2867
      5  CB        16.7260   -8.4810    9.2330 C.3    27  LEU27       0.0270
      6  CG        17.3160   -7.0770    9.1550 C.3    27  LEU27       0.0019
      7  CD1       18.1640   -6.8000   10.3900 C.3    27  LEU27       0.0001
      8  CD2       18.1840   -6.9840    7.9030 C.3    27  LEU27       0.0001
      9  N         22.5940   -7.2070   18.3920 N.3    43  HIS43      -0.1226
     10  CA        22.4280   -8.5770   17.9170 C.3    43  HIS43       0.1752
     11  C         21.6890   -8.6670   16.5860 C.2    43  HIS43       0.2596
     12  O         21.7060   -9.7080   15.9370 O.2    43  HIS43      -0.2718
     13  CB        21.7460   -9.4690   18.9710 C.3    43  HIS43       0.0759
     14  CG        20.2580   -9.3160   19.0460 C.ar   43  HIS43       0.0818
     15  ND1       19.6390   -8.4230   19.8920 N.ar   43  HIS43      -0.2268
     16  CD2       19.2650   -9.9550   18.3810 C.ar   43  HIS43       0.1154
     17  CE1       18.3290   -8.5170   19.7460 C.ar   43  HIS43       0.1986
     18  NE2       18.0760   -9.4390   18.8350 N.ar   43  HIS43      -0.2212
     19  N         21.0440   -7.5770   16.1830 N.am   44  CYS44      -0.1970
     20  CA        20.3420   -7.5460   14.9020 C.3    44  CYS44       0.1712
     21  C         21.3530   -7.4860   13.7740 C.2    44  CYS44       0.2296
     22  O         21.0790   -7.9320   12.6630 O.2    44  CYS44      -0.2864
     23  CB        19.4560   -6.3100   14.8070 C.3    44  CYS44       0.0983
     24  SG        17.8930   -6.4150   15.7120 S.3    44  CYS44      -0.0798
     25  N         25.9220  -11.2790   15.3530 N.3    47  TYR47      -0.1241
     26  CA        25.7050  -12.4150   16.2430 C.3    47  TYR47       0.1605
     27  C         26.4310  -13.6270   15.6730 C.2    47  TYR47       0.2264
     28  O         25.8300  -14.4740   15.0060 O.2    47  TYR47      -0.2867
     29  CB        24.2200  -12.7320   16.4040 C.3    47  TYR47       0.0534
     30  CG        23.9550  -13.6450   17.5810 C.ar   47  TYR47      -0.0201
     31  CD1       24.1710  -13.2050   18.8860 C.ar   47  TYR47      -0.0009
     32  CD2       23.5000  -14.9510   17.3950 C.ar   47  TYR47      -0.0009
     33  CE1       23.9420  -14.0400   19.9780 C.ar   47  TYR47       0.0417
     34  CE2       23.2660  -15.7940   18.4810 C.ar   47  TYR47       0.0417
     35  CZ        23.4900  -15.3300   19.7700 C.ar   47  TYR47       0.1957
     36  OH        23.2660  -16.1550   20.8480 O.3    47  TYR47      -0.2866
     37  N         25.3450  -17.5230   15.2060 N.3    50  TRP50      -0.1241
     38  CA        24.4770  -17.9080   14.0940 C.3    50  TRP50       0.1605
     39  C         24.9790  -17.3940   12.7500 C.2    50  TRP50       0.2264
     40  O         24.2190  -17.3170   11.7850 O.2    50  TRP50      -0.2867
     41  CB        23.0600  -17.3910   14.3410 C.3    50  TRP50       0.0550
     42  CG        22.3580  -18.0580   15.4870 C.ar   50  TRP50       0.0003
     43  CD1       22.9110  -18.8860   16.4240 C.ar   50  TRP50       0.0946
     44  CD2       20.9760  -17.9290   15.8340 C.ar   50  TRP50       0.0152
     45  NE1       21.9580  -19.2780   17.3330 N.ar   50  TRP50      -0.2442
     46  CE2       20.7610  -18.7050   16.9940 C.ar   50  TRP50       0.0810
     47  CE3       19.8960  -17.2310   15.2770 C.ar   50  TRP50       0.0012
     48  CZ2       19.5090  -18.8010   17.6090 C.ar   50  TRP50       0.0191
     49  CZ3       18.6500  -17.3270   15.8880 C.ar   50  TRP50       0.0001
     50  CH2       18.4680  -18.1070   17.0440 C.ar   50  TRP50       0.0015
     51  N         25.8270  -14.3900   11.8640 N.3    52  LYS52      -0.1245
     52  CA        25.2090  -13.1280   11.4880 C.3    52  LYS52       0.1561
     53  C         26.2260  -12.0040   11.6520 C.2    52  LYS52       0.2260
     54  O         26.7590  -11.7870   12.7400 O.2    52  LYS52      -0.2867
     55  CB        23.9740  -12.8540   12.3580 C.3    52  LYS52       0.0271
     56  CG        23.3180  -11.5000   12.0990 C.3    52  LYS52       0.0035
     57  CD        21.9770  -11.3620   12.8220 C.3    52  LYS52       0.0206
     58  CE        20.9580  -12.3610   12.2860 C.3    52  LYS52       0.1093
     59  NZ        19.6240  -12.2220   12.9380 N.3    52  LYS52      -0.1314
     60  N         28.2590  -13.9560   25.8270 N.3    94  GLU94      -0.1231
     61  CA        27.5790  -14.4330   27.0190 C.3    94  GLU94       0.1699
     62  C         26.0870  -14.1660   27.1480 C.2    94  GLU94       0.2592
     63  O         25.2600  -15.0320   26.8590 O.2    94  GLU94      -0.2718
     64  CB        28.2720  -13.8800   28.2680 C.3    94  GLU94       0.0402
     65  CG        27.8650  -14.5880   29.5560 C.3    94  GLU94       0.1161
     66  CD        28.1050  -13.7480   30.7960 C.2    94  GLU94       0.3649
     67  OE1       29.0770  -12.9610   30.8130 O.co2  94  GLU94      -0.2457
     68  OE2       27.3260  -13.8860   31.7640 O.co2  94  GLU94      -0.2457
     69  N         25.7540  -12.9550   27.5790 N.am   95  ASN95      -0.1960
     70  CA        24.3700  -12.5760   27.8440 C.3    95  ASN95       0.1819
     71  C         23.8010  -11.4130   27.0470 C.2    95  ASN95       0.2621
     72  O         22.7560  -10.8770   27.4120 O.2    95  ASN95      -0.2715
     73  CB        24.2530  -12.2310   29.3220 C.3    95  ASN95       0.1195
     74  CG        25.2420  -11.1640   29.7380 C.2    95  ASN95       0.2630
     75  OD1       25.9580  -10.6030   28.9060 O.2    95  ASN95      -0.2716
     76  ND2       25.2880  -10.8740   31.0290 N.am   95  ASN95      -0.0877
     77  N         24.4770  -11.0150   25.9790 N.am   96  LEU96      -0.1977
     78  CA        24.0160   -9.8930   25.1580 C.3    96  LEU96       0.1596
     79  C         24.0090   -8.5690   25.9310 C.2    96  LEU96       0.2287
     80  O         23.1780   -7.6870   25.6810 O.2    96  LEU96      -0.2864
     81  CB        22.6150  -10.1710   24.5980 C.3    96  LEU96       0.0297
     82  CG        22.4630  -11.3480   23.6370 C.3    96  LEU96       0.0022
     83  CD1       21.0420  -11.3700   23.0790 C.3    96  LEU96       0.0001
     84  CD2       23.4660  -11.2180   22.5050 C.3    96  LEU96       0.0001
     85  N         20.3630  -17.1270   33.0000 N.3   173  ILE173     -0.1245
     86  CA        21.2780  -16.1680   32.3900 C.3   173  ILE173      0.1561
     87  C         21.6050  -15.0240   33.3510 C.2   173  ILE173      0.2260
     88  O         20.7570  -14.5940   34.1410 O.2   173  ILE173     -0.2867
     89  CB        20.6720  -15.6000   31.0780 C.3   173  ILE173      0.0252
     90  CG1       20.4110  -16.7520   30.1050 C.3   173  ILE173      0.0019
     91  CG2       21.6090  -14.5700   30.4560 C.3   173  ILE173      0.0019
     92  CD1       19.8070  -16.3350   28.7840 C.3   173  ILE173      0.0001
     93  N          4.1770  -10.0810   24.7960 N.3   193  ASP193     -0.1225
     94  CA         5.6340  -10.0880   24.7820 C.3   193  ASP193      0.1805
     95  C          6.0920   -9.8690   23.3520 C.2   193  ASP193      0.2598
     96  O          5.2970   -9.9560   22.4170 O.2   193  ASP193     -0.2718
     97  CB         6.1280  -11.4460   25.3110 C.3   193  ASP193      0.1424
     98  CG         7.6440  -11.5740   25.3430 C.2   193  ASP193      0.3668
     99  OD1        8.3590  -10.5650   25.5240 O.co2 193  ASP193     -0.2456
    100  OD2        8.1270  -12.7210   25.2170 O.co2 193  ASP193     -0.2456
    101  N          7.3680   -9.5440   23.1880 N.am  194  ALA194     -0.1966
    102  CA         7.9320   -9.3700   21.8620 C.3   194  ALA194      0.1728
    103  C          8.3060  -10.7830   21.4230 C.2   194  ALA194      0.2616
    104  O          8.3790  -11.6880   22.2530 O.2   194  ALA194     -0.2715
    105  CB         9.1750   -8.4970   21.9350 C.3   194  ALA194      0.0334
    106  N          8.5310  -10.9800   20.1300 N.am  195  CYS195     -0.1954
    107  CA         8.9140  -12.2940   19.6240 C.3   195  CYS195      0.1843
    108  C          9.9190  -12.1190   18.4930 C.2   195  CYS195      0.2625
    109  O         10.3990  -11.0130   18.2540 O.2   195  CYS195     -0.2714
    110  CB         7.6770  -13.0480   19.1340 C.3   195  CYS195      0.0997
    111  SG         7.8670  -14.8630   19.0530 S.3   195  CYS195     -0.0797
    112  N         10.2370  -13.2080   17.8000 N.am  196  GLU196     -0.1977
    113  CA        11.1990  -13.1610   16.7040 C.3   196  GLU196      0.1602
    114  C         10.7690  -12.1170   15.6820 C.2   196  GLU196      0.2287
    115  O          9.6130  -12.0960   15.2630 O.2   196  GLU196     -0.2864
    116  CB        11.2940  -14.5310   16.0270 C.3   196  GLU196      0.0415
    117  CG        12.5620  -14.7400   15.2110 C.3   196  GLU196      0.1163
    118  CD        13.8060  -14.8620   16.0840 C.2   196  GLU196      0.3649
    119  OE1       13.8050  -15.7090   17.0060 O.co2 196  GLU196     -0.2457
    120  OE2       14.7870  -14.1210   15.8450 O.co2 196  GLU196     -0.2457
    121  N         12.9820   -7.9320   17.6060 N.3   199  SER199     -0.1217
    122  CA        14.2970   -7.5500   18.1120 C.3   199  SER199      0.1889
    123  C         14.7270   -6.1970   17.5740 C.2   199  SER199      0.2288
    124  O         14.5120   -5.9030   16.4030 O.2   199  SER199     -0.2866
    125  CB        15.3510   -8.5790   17.6840 C.3   199  SER199      0.2089
    126  OG        15.1800   -9.8210   18.3320 O.3   199  SER199     -0.2183
    127  N         14.2750   -3.8470   22.3590 N.3   219  VAL219     -0.1231
    128  CA        13.9460   -5.2680   22.4640 C.3   219  VAL219      0.1692
    129  C         15.2530   -6.0330   22.2860 C.2   219  VAL219      0.2593
    130  O         15.8590   -5.9900   21.2160 O.2   219  VAL219     -0.2718
    131  CB        12.9340   -5.6870   21.3840 C.3   219  VAL219      0.0266
    132  CG1       12.6310   -7.1840   21.4990 C.3   219  VAL219      0.0020
    133  CG2       11.6510   -4.8780   21.5440 C.3   219  VAL219      0.0020
    134  N         15.6750   -6.7340   23.3370 N.am  220  SER220     -0.1938
    135  CA        16.9420   -7.4570   23.3150 C.3   220  SER220      0.2055
    136  C         16.8260   -8.9780   23.2650 C.2   220  SER220      0.2643
    137  O         17.1440   -9.5940   22.2490 O.2   220  SER220     -0.2714
    138  CB        17.7770   -7.0400   24.5320 C.3   220  SER220      0.2130
    139  OG        19.0760   -7.6040   24.5040 O.3   220  SER220     -0.2179
    140  N         16.3980   -9.6010   24.3540 N.am  221  TRP221     -0.1959
    141  CA        16.2830  -11.0500   24.3340 C.3   221  TRP221      0.1771
    142  C         15.2140  -11.6120   25.2450 C.2   221  TRP221      0.2620
    143  O         14.6570  -10.9140   26.0860 O.2   221  TRP221     -0.2715
    144  CB        17.6330  -11.7050   24.6720 C.3   221  TRP221      0.0590
    145  CG        18.1680  -11.3770   26.0380 C.ar  221  TRP221      0.0006
    146  CD1       18.8860  -10.2750   26.3930 C.ar  221  TRP221      0.0946
    147  CD2       18.0200  -12.1610   27.2280 C.ar  221  TRP221      0.0152
    148  NE1       19.1970  -10.3200   27.7320 N.ar  221  TRP221     -0.2442
    149  CE2       18.6770  -11.4670   28.2690 C.ar  221  TRP221      0.0810
    150  CE3       17.3940  -13.3820   27.5170 C.ar  221  TRP221      0.0012
    151  CZ2       18.7280  -11.9540   29.5780 C.ar  221  TRP221      0.0191
    152  CZ3       17.4440  -13.8650   28.8200 C.ar  221  TRP221      0.0001
    153  CH2       18.1050  -13.1520   29.8320 C.ar  221  TRP221      0.0015
    154  N         14.9320  -12.8930   25.0500 N.am  222  GLY222     -0.1940
    155  CA        13.9430  -13.5720   25.8570 C.3   222  GLY222      0.2014
    156  C         14.0760  -15.0580   25.6070 C.2   222  GLY222      0.2639
    157  O         14.7060  -15.4740   24.6400 O.2   222  GLY222     -0.2714
    158  N         13.5080  -15.8620   26.4900 N.am  223  GLU223     -0.1963
    159  CA        13.5590  -17.3000   26.3190 C.3   223  GLU223      0.1733
    160  C         12.1830  -17.6890   25.8090 C.2   223  GLU223      0.2617
    161  O         11.2270  -17.8190   26.5740 O.2   223  GLU223     -0.2715
    162  CB        13.8970  -17.9730   27.6490 C.3   223  GLU223      0.0429
    163  CG        15.2940  -17.6070   28.1360 C.3   223  GLU223      0.1163
    164  CD        15.7540  -18.4340   29.3180 C.2   223  GLU223      0.3649
    165  OE1       15.2030  -18.2610   30.4250 O.co2 223  GLU223     -0.2457
    166  OE2       16.6690  -19.2640   29.1350 O.co2 223  GLU223     -0.2457
    167  N         12.0910  -17.8410   24.4940 N.am  224  GLY224     -0.1940
    168  CA        10.8250  -18.1650   23.8760 C.3   224  GLY224      0.2014
    169  C         10.0500  -16.8690   23.7490 C.2   224  GLY224      0.2639
    170  O         10.6330  -15.7870   23.8370 O.2   224  GLY224     -0.2714
    171  N          8.7420  -16.9720   23.5480 N.am  225  CYS225     -0.1967
    172  CA         7.8860  -15.7990   23.4100 C.3   225  CYS225      0.1712
    173  C          6.6310  -15.9770   24.2490 C.2   225  CYS225      0.2296
    174  O          5.9460  -16.9910   24.1350 O.2   225  CYS225     -0.2864
    175  CB         7.4720  -15.6090   21.9500 C.3   225  CYS225      0.0983
    176  SG         8.8330  -15.3540   20.7750 S.3   225  CYS225     -0.0798
    177  N          6.0250  -16.8240   27.3170 N.3   227  ARG227     -0.1245
    178  CA         5.9170  -18.0370   28.1180 C.3   227  ARG227      0.1563
    179  C          5.6860  -17.6510   29.5720 C.2   227  ARG227      0.2260
    180  O          6.2650  -16.6840   30.0610 O.2   227  ARG227     -0.2867
    181  CB         7.1940  -18.8670   27.9770 C.3   227  ARG227      0.0307
    182  CG         7.5270  -19.1650   26.5260 C.3   227  ARG227      0.0489
    183  CD         8.9050  -19.7740   26.3490 C.3   227  ARG227      0.2205
    184  NE         8.9370  -21.2030   26.6330 N.pl3 227  ARG227     -0.0865
    185  CZ         9.9830  -21.9850   26.3790 C.cat 227  ARG227      0.5346
    186  NH1       11.0780  -21.4710   25.8360 N.pl3 227  ARG227      0.1354
    187  NH2        9.9330  -23.2780   26.6650 N.pl3 227  ARG227      0.1354
    188  N         10.4890  -10.6250   28.9590 N.3   232  GLY232     -0.1210
    189  CA        11.3150  -10.1010   27.8940 C.3   232  GLY232      0.1956
    190  C         12.3620   -9.1930   28.5040 C.2   232  GLY232      0.2612
    191  O         12.0770   -8.4760   29.4600 O.2   232  GLY232     -0.2717
    192  N         13.5820   -9.2480   27.9810 N.am  233  PHE233     -0.1962
    193  CA        14.6470   -8.3930   28.4820 C.3   233  PHE233      0.1771
    194  C         14.9500   -7.2940   27.4860 C.2   233  PHE233      0.2619
    195  O         14.9530   -7.5170   26.2800 O.2   233  PHE233     -0.2715
    196  CB        15.8870   -9.2200   28.8030 C.3   233  PHE233      0.0574
    197  CG        15.7540   -9.9960   30.0770 C.ar  233  PHE233     -0.0200
    198  CD1       14.9860  -11.1570   30.1280 C.ar  233  PHE233     -0.0042
    199  CD2       16.3300   -9.5220   31.2470 C.ar  233  PHE233     -0.0042
    200  CE1       14.7930  -11.8310   31.3370 C.ar  233  PHE233     -0.0003
    201  CE2       16.1440  -10.1860   32.4600 C.ar  233  PHE233     -0.0003
    202  CZ        15.3750  -11.3400   32.5040 C.ar  233  PHE233     -0.0000
    203  N         15.1960   -6.0970   28.0090 N.am  234  TYR234     -0.1974
    204  CA        15.4380   -4.9350   27.1760 C.3   234  TYR234      0.1639
    205  C         16.7120   -4.1850   27.5290 C.2   234  TYR234      0.2290
    206  O         17.0950   -4.0950   28.6940 O.2   234  TYR234     -0.2864
    207  CB        14.2460   -3.9780   27.2990 C.3   234  TYR234      0.0560
    208  CG        12.9180   -4.5920   26.9360 C.ar  234  TYR234     -0.0198
    209  CD1       12.2560   -5.4500   27.8190 C.ar  234  TYR234     -0.0009
    210  CD2       12.3450   -4.3580   25.6910 C.ar  234  TYR234     -0.0009
    211  CE1       11.0660   -6.0620   27.4670 C.ar  234  TYR234      0.0417
    212  CE2       11.1510   -4.9640   25.3260 C.ar  234  TYR234      0.0417
    213  CZ        10.5170   -5.8190   26.2170 C.ar  234  TYR234      0.1957
    214  OH         9.3530   -6.4550   25.8460 O.3   234  TYR234     -0.2866
@<TRIPOS>BOND
     1     8     6    1
     2     1     2    1
     3     6     5    1
     4     6     7    1
     5     5     2    1
     6     2     3    1
     7     3     4    2
     8    52    53    1
     9    52    51    1
    10    52    55    1
    11    53    54    2
    12    40    39    2
    13    56    55    1
    14    56    57    1
    15    58    57    1
    16    58    59    1
    17    22    21    2
    18    39    38    1
    19    21    20    1
    20    38    41    1
    21    38    37    1
    22    41    42    1
    23    23    20    1
    24    23    24    1
    25    20    19    1
    26    28    27    2
    27   117   116    1
    28   117   118    1
    29   115   114    2
    30    47    44   ar
    31    47    49   ar
    32    25    26    1
    33    42    44   ar
    34    42    43   ar
    35    27    26    1
    36   114   113    1
    37    44    46   ar
    38   120   118   ar
    39    49    50   ar
    40    12    11    2
    41   116   113    1
    42   118   119   ar
    43    19    11   am
    44    26    29    1
    45   124   123    2
    46    29    30    1
    47    43    45   ar
    48    11    10    1
    49   113   112    1
    50    46    45   ar
    51    46    48   ar
    52    50    48   ar
    53    32    30   ar
    54    32    34   ar
    55   123   122    1
    56    30    31   ar
    57   121   122    1
    58   125   122    1
    59   125   126    1
    60   112   108   am
    61    10     9    1
    62    10    13    1
    63   109   108    2
    64    16    18   ar
    65    16    14   ar
    66    34    35   ar
    67   108   107    1
    68    18    17   ar
    69    31    33   ar
    70    13    14    1
    71    14    15   ar
    72   111   110    1
    73   111   176    1
    74   110   107    1
    75   107   106    1
    76    17    15   ar
    77    35    33   ar
    78    35    36    1
    79   106   103   am
    80   176   175    1
    81   130   129    2
    82   131   132    1
    83   131   133    1
    84   131   128    1
    85   103   102    1
    86   103   104    2
    87   102   105    1
    88   102   101    1
    89   175   172    1
    90   137   136    2
    91   129   128    1
    92   129   134   am
    93   127   128    1
    94    96    95    2
    95    84    82    1
    96    83    82    1
    97   101    95   am
    98   136   135    1
    99   136   140   am
   100   135   134    1
   101   135   138    1
   102    95    94    1
   103   172   171    1
   104   172   173    1
   105   171   169   am
   106    82    81    1
   107   169   170    2
   108   169   168    1
   109   168   167    1
   110   174   173    2
   111   141   140    1
   112   141   144    1
   113   141   142    1
   114   167   160   am
   115   139   138    1
   116    81    78    1
   117   157   156    2
   118   144   145    1
   119    94    93    1
   120    94    97    1
   121   154   142   am
   122   154   155    1
   123    78    79    1
   124    78    77    1
   125   100    98   ar
   126   142   143    2
   127    97    98    1
   128   212   210   ar
   129   212   213   ar
   130    98    99   ar
   131   156   155    1
   132   156   158   am
   133    80    79    2
   134   210   208   ar
   135   160   159    1
   136   160   161    2
   137    60    61    1
   138   186   185    1
   139   214   213    1
   140    77    71   am
   141   145   146   ar
   142   145   147   ar
   143   213   211   ar
   144   195   194    2
   145   159   158    1
   146   159   162    1
   147   183   182    1
   148   183   184    1
   149   185   184    2
   150   185   187    1
   151   146   148   ar
   152   182   181    1
   153    63    62    2
   154   208   207    1
   155   208   209   ar
   156    61    62    1
   157    61    64    1
   158    71    72    2
   159    71    70    1
   160    62    69   am
   161   204   207    1
   162   204   205    1
   163   204   203    1
   164   147   150   ar
   165   147   149   ar
   166   177   178    1
   167   211   209   ar
   168   194   203   am
   169   194   193    1
   170   150   152   ar
   171   205   206    2
   172    69    70    1
   173   162   163    1
   174   148   149   ar
   175    70    73    1
   176   189   190    1
   177   189   188    1
   178   181   178    1
   179   192   193    1
   180   192   190   am
   181   178   179    1
   182   163   164    1
   183    64    65    1
   184   149   151   ar
   185   193   196    1
   186   190   191    2
   187    92    90    1
   188   196   197    1
   189   152   153   ar
   190    75    74    2
   191   166   164   ar
   192   164   165   ar
   193    73    74    1
   194    65    66    1
   195   179   180    2
   196   151   153   ar
   197    74    76   am
   198   197   198   ar
   199   197   199   ar
   200    90    89    1
   201   198   200   ar
   202    91    89    1
   203    66    67   ar
   204    66    68   ar
   205    89    86    1
   206   199   201   ar
   207   200   202   ar
   208    86    85    1
   209    86    87    1
   210   201   202   ar
   211    87    88    2
