@<TRIPOS>MOLECULE
tmp/1w7gA00.pdb
 159 151 0 0 0
SMALL
GASTEIGER

@<TRIPOS>ATOM
      1  N         11.8080   -0.2870   10.2370 N.3    17  MET17      -0.1245
      2  CA        11.9350   -1.6830    9.8540 C.3    17  MET17       0.1570
      3  C         13.3070   -1.8530    9.2100 C.2    17  MET17       0.2261
      4  O         13.6450   -1.1340    8.2710 O.2    17  MET17      -0.2867
      5  CB        10.8670   -2.0930    8.8340 C.3    17  MET17       0.0387
      6  CG        11.0180   -3.5450    8.3600 C.3    17  MET17       0.0595
      7  SD         9.9280   -4.0120    6.9860 S.3    17  MET17      -0.1393
      8  CE         8.3270   -4.0320    7.8070 C.3    17  MET17       0.0692
      9  N         15.3220   -3.8480    6.8760 N.3    19  PHE19      -0.1241
     10  CA        14.9730   -4.7520    5.7870 C.3    19  PHE19       0.1605
     11  C         16.2110   -5.2820    5.0740 C.2    19  PHE19       0.2264
     12  O         17.0960   -4.5200    4.6950 O.2    19  PHE19      -0.2867
     13  CB        14.0620   -3.9830    4.8190 C.3    19  PHE19       0.0534
     14  CG        13.3770   -4.8370    3.7870 C.ar   19  PHE19      -0.0203
     15  CD1       13.8010   -4.8210    2.4610 C.ar   19  PHE19      -0.0042
     16  CD2       12.2840   -5.6220    4.1290 C.ar   19  PHE19      -0.0042
     17  CE1       13.1400   -5.5730    1.4880 C.ar   19  PHE19      -0.0003
     18  CE2       11.6170   -6.3790    3.1660 C.ar   19  PHE19      -0.0003
     19  CZ        12.0470   -6.3520    1.8440 C.ar   19  PHE19      -0.0000
     20  N         18.2380   -6.7620    2.0120 N.3    21  LYS21      -0.1245
     21  CA        18.1510   -6.5950    0.5610 C.3    21  LYS21       0.1561
     22  C         17.8630   -7.8850   -0.1920 C.2    21  LYS21       0.2260
     23  O         16.9810   -7.9280   -1.0490 O.2    21  LYS21      -0.2867
     24  CB        19.4430   -5.9940    0.0140 C.3    21  LYS21       0.0271
     25  CG        19.6360   -4.5180    0.2940 C.3    21  LYS21       0.0035
     26  CD        20.8980   -4.0390   -0.3900 C.3    21  LYS21       0.0206
     27  CE        21.1640   -2.5710   -0.1380 C.3    21  LYS21       0.1093
     28  NZ        22.4270   -2.1550   -0.8060 N.3    21  LYS21      -0.1314
     29  N         14.7760  -10.5410    0.1480 N.3    24  GLN24      -0.1231
     30  CA        13.9630   -9.4710    0.7210 C.3    24  GLN24       0.1698
     31  C         13.1340   -9.9830    1.8910 C.2    24  GLN24       0.2592
     32  O         12.1790  -10.7410    1.7050 O.2    24  GLN24      -0.2718
     33  CB        13.0250   -8.8740   -0.3310 C.3    24  GLN24       0.0381
     34  CG        13.6820   -7.8960   -1.2910 C.3    24  GLN24       0.0905
     35  CD        12.6830   -6.9270   -1.9060 C.2    24  GLN24       0.2608
     36  OE1       13.0500   -6.0520   -2.6900 O.2    24  GLN24      -0.2717
     37  NE2       11.4120   -7.0760   -1.5440 N.am   24  GLN24      -0.0878
     38  N         13.4950   -9.5670    3.0980 N.am   25  GLU25      -0.1966
     39  CA        12.7700   -9.9950    4.2870 C.3    25  GLU25       0.1733
     40  C         13.0300   -9.0810    5.4700 C.2    25  GLU25       0.2616
     41  O         14.0030   -8.3290    5.4880 O.2    25  GLU25      -0.2715
     42  CB        13.1660  -11.4220    4.6630 C.3    25  GLU25       0.0429
     43  CG        14.6620  -11.6440    4.7490 C.3    25  GLU25       0.1163
     44  CD        15.0140  -12.9900    5.3540 C.2    25  GLU25       0.3649
     45  OE1       14.3540  -13.9950    5.0030 O.co2  25  GLU25      -0.2457
     46  OE2       15.9560  -13.0480    6.1720 O.co2  25  GLU25      -0.2457
     47  N         12.1480   -9.1450    6.4590 N.am   26  LEU26      -0.1977
     48  CA        12.3140   -8.3270    7.6490 C.3    26  LEU26       0.1596
     49  C         13.3890   -8.9740    8.4930 C.2    26  LEU26       0.2287
     50  O         13.3980  -10.1900    8.6670 O.2    26  LEU26      -0.2864
     51  CB        11.0140   -8.2530    8.4500 C.3    26  LEU26       0.0297
     52  CG        11.1510   -7.5730    9.8190 C.3    26  LEU26       0.0022
     53  CD1       10.0620   -6.5330    9.9960 C.3    26  LEU26       0.0001
     54  CD2       11.0850   -8.6180   10.9140 C.3    26  LEU26       0.0001
     55  N         18.5760   -2.1400    4.4300 N.3    60  LEU60      -0.1245
     56  CA        17.8640   -0.9270    4.0750 C.3    60  LEU60       0.1561
     57  C         17.0400   -0.5720    5.3110 C.2    60  LEU60       0.2260
     58  O         16.7470   -1.4370    6.1400 O.2    60  LEU60      -0.2867
     59  CB        16.9290   -1.1840    2.8900 C.3    60  LEU60       0.0270
     60  CG        17.2150   -0.5310    1.5350 C.3    60  LEU60       0.0019
     61  CD1       18.7010   -0.4740    1.2580 C.3    60  LEU60       0.0001
     62  CD2       16.4690   -1.3090    0.4570 C.3    60  LEU60       0.0001
     63  N         13.4520    1.1460    6.4430 N.3    62  ARG62      -0.1245
     64  CA        12.1410    1.5550    5.9520 C.3    62  ARG62       0.1563
     65  C         11.4210    2.2400    7.1070 C.2    62  ARG62       0.2260
     66  O         11.1560    1.6340    8.1410 O.2    62  ARG62      -0.2867
     67  CB        11.3750    0.3310    5.4440 C.3    62  ARG62       0.0307
     68  CG        12.1570   -0.4200    4.3570 C.3    62  ARG62       0.0489
     69  CD        11.4290   -1.6460    3.8290 C.3    62  ARG62       0.2205
     70  NE        10.1720   -1.3210    3.1610 N.pl3  62  ARG62      -0.0865
     71  CZ         9.4180   -2.2130    2.5270 C.cat  62  ARG62       0.5346
     72  NH1        9.7960   -3.4820    2.4700 N.pl3  62  ARG62       0.1354
     73  NH2        8.2800   -1.8420    1.9560 N.pl3  62  ARG62       0.1354
     74  N          3.1440   -4.5870    6.9720 N.3    68  ARG68      -0.1231
     75  CA         4.3970   -5.3230    7.0930 C.3    68  ARG68       0.1694
     76  C          5.0350   -5.6570    5.7470 C.2    68  ARG68       0.2593
     77  O          6.2130   -5.3760    5.5230 O.2    68  ARG68      -0.2718
     78  CB         4.1530   -6.6090    7.8890 C.3    68  ARG68       0.0321
     79  CG         5.3100   -7.6050    7.9040 C.3    68  ARG68       0.0489
     80  CD         5.0730   -8.6900    8.9460 C.3    68  ARG68       0.2205
     81  NE         5.6720   -9.9600    8.5510 N.pl3  68  ARG68      -0.0865
     82  CZ         5.2150  -10.7210    7.5590 C.cat  68  ARG68       0.5346
     83  NH1        4.1510  -10.3440    6.8670 N.pl3  68  ARG68       0.1354
     84  NH2        5.8280  -11.8530    7.2500 N.pl3  68  ARG68       0.1354
     85  N          4.2380   -6.2240    4.8470 N.am   69  THR69      -0.1939
     86  CA         4.7160   -6.6610    3.5390 C.3    69  THR69       0.2028
     87  C          4.5970   -5.6980    2.3580 C.2    69  THR69       0.2642
     88  O          5.4230   -5.7290    1.4460 O.2    69  THR69      -0.2714
     89  CB         4.0090   -7.9730    3.1460 C.3    69  THR69       0.1808
     90  OG1        4.3820   -9.0070    4.0650 O.3    69  THR69      -0.2208
     91  CG2        4.3780   -8.3850    1.7330 C.3    69  THR69       0.0379
     92  N          3.5780   -4.8520    2.3570 N.am   70  ARG70      -0.1963
     93  CA         3.3870   -3.9440    1.2380 C.3    70  ARG70       0.1729
     94  C          4.3470   -2.7590    1.1580 C.2    70  ARG70       0.2616
     95  O          4.9410   -2.3420    2.1580 O.2    70  ARG70      -0.2715
     96  CB         1.9430   -3.4290    1.2220 C.3    70  ARG70       0.0348
     97  CG         0.8870   -4.5020    0.9450 C.3    70  ARG70       0.0492
     98  CD         0.4770   -5.2480    2.2080 C.3    70  ARG70       0.2205
     99  NE        -0.6250   -6.1760    1.9580 N.pl3  70  ARG70      -0.0865
    100  CZ        -1.2670   -6.8520    2.9060 C.cat  70  ARG70       0.5346
    101  NH1       -0.9220   -6.7080    4.1770 N.pl3  70  ARG70       0.1354
    102  NH2       -2.2550   -7.6770    2.5830 N.pl3  70  ARG70       0.1354
    103  N          4.5270   -2.2480   -0.0570 N.am   71  TYR71      -0.1974
    104  CA         5.3650   -1.0800   -0.2640 C.3    71  TYR71       0.1639
    105  C          4.3820    0.0790   -0.1810 C.2    71  TYR71       0.2290
    106  O          3.5720    0.2890   -1.0820 O.2    71  TYR71      -0.2864
    107  CB         6.0380   -1.0920   -1.6410 C.3    71  TYR71       0.0560
    108  CG         6.7210    0.2180   -1.9500 C.ar   71  TYR71      -0.0198
    109  CD1        7.7430    0.7040   -1.1320 C.ar   71  TYR71      -0.0009
    110  CD2        6.2860    1.0210   -3.0050 C.ar   71  TYR71      -0.0009
    111  CE1        8.3070    1.9540   -1.3470 C.ar   71  TYR71       0.0417
    112  CE2        6.8430    2.2770   -3.2300 C.ar   71  TYR71       0.0417
    113  CZ         7.8500    2.7400   -2.3940 C.ar   71  TYR71       0.1957
    114  OH         8.3810    3.9930   -2.5850 O.3    71  TYR71      -0.2866
    115  N          3.9270    3.1940   -0.8410 N.3    73  ARG73      -0.1245
    116  CA         4.3380    4.2670   -1.7350 C.3    73  ARG73       0.1563
    117  C          4.5150    5.6840   -1.1810 C.2    73  ARG73       0.2260
    118  O          5.5900    6.0280   -0.6830 O.2    73  ARG73      -0.2867
    119  CB         3.3940    4.2720   -2.9430 C.3    73  ARG73       0.0307
    120  CG         3.4000    2.9450   -3.6960 C.3    73  ARG73       0.0489
    121  CD         2.1950    2.8070   -4.6170 C.3    73  ARG73       0.2205
    122  NE         2.0280    3.9910   -5.4490 N.pl3  73  ARG73      -0.0865
    123  CZ         0.9250    4.2770   -6.1310 C.cat  73  ARG73       0.5346
    124  NH1       -0.1190    3.4600   -6.0910 N.pl3  73  ARG73       0.1354
    125  NH2        0.8590    5.3990   -6.8300 N.pl3  73  ARG73       0.1354
    126  N          5.7940    5.5730    3.2580 N.3    76  GLU76      -0.1231
    127  CA         7.0640    5.1500    3.8340 C.3    76  GLU76       0.1699
    128  C          8.2380    5.7440    3.0700 C.2    76  GLU76       0.2592
    129  O          8.1010    6.2000    1.9320 O.2    76  GLU76      -0.2718
    130  CB         7.1930    3.6150    3.8790 C.3    76  GLU76       0.0402
    131  CG         7.2590    2.9050    2.5270 C.3    76  GLU76       0.1161
    132  CD         7.7000    1.4470    2.6420 C.2    76  GLU76       0.3649
    133  OE1        8.9040    1.1960    2.8790 O.co2  76  GLU76      -0.2457
    134  OE2        6.8490    0.5460    2.4950 O.co2  76  GLU76      -0.2457
    135  N          9.3910    5.7670    3.7250 N.am   77  LYS77      -0.1966
    136  CA        10.6050    6.2760    3.1130 C.3    77  LYS77       0.1728
    137  C         11.6910    5.2300    3.3300 C.2    77  LYS77       0.2616
    138  O         11.9180    4.7750    4.4540 O.2    77  LYS77      -0.2715
    139  CB        11.0230    7.6080    3.7440 C.3    77  LYS77       0.0311
    140  CG        10.1060    8.7910    3.4300 C.3    77  LYS77       0.0038
    141  CD        10.6320   10.0630    4.1000 C.3    77  LYS77       0.0206
    142  CE         9.8380   11.3110    3.7100 C.3    77  LYS77       0.1093
    143  NZ         8.4340   11.3070    4.2170 N.3    77  LYS77      -0.1314
    144  N         12.3540    4.8380    2.2480 N.am   78  ILE78      -0.1977
    145  CA        13.4120    3.8400    2.3340 C.3    78  ILE78       0.1596
    146  C         14.7660    4.5510    2.3140 C.2    78  ILE78       0.2287
    147  O         15.0490    5.3590    1.4230 O.2    78  ILE78      -0.2864
    148  CB        13.2910    2.8160    1.1750 C.3    78  ILE78       0.0276
    149  CG1       11.8980    2.1720    1.2140 C.3    78  ILE78       0.0022
    150  CG2       14.3640    1.7370    1.3040 C.3    78  ILE78       0.0022
    151  CD1       11.6670    1.0540    0.2150 C.3    78  ILE78       0.0001
    152  N         19.1880    4.3750    2.8320 N.3    80  MET80      -0.1245
    153  CA        20.3870    3.5510    2.7480 C.3    80  MET80       0.1570
    154  C         21.2820    3.8800    3.9370 C.2    80  MET80       0.2261
    155  O         21.2280    4.9850    4.4700 O.2    80  MET80      -0.2867
    156  CB        21.1240    3.8200    1.4320 C.3    80  MET80       0.0387
    157  CG        20.2540    3.6370    0.1960 C.3    80  MET80       0.0595
    158  SD        21.1770    3.7920   -1.3530 S.3    80  MET80      -0.1393
    159  CE        20.8370    2.2020   -2.1110 C.3    80  MET80       0.0692
@<TRIPOS>BOND
     1   125   123    1
     2   123   124    1
     3   123   122    2
     4   122   121    1
     5   121   120    1
     6   120   119    1
     7   112   110   ar
     8   112   113   ar
     9   110   108   ar
    10   119   116    1
    11    36    35    2
    12   114   113    1
    13   113   111   ar
    14   159   158    1
    15   108   107    1
    16   108   109   ar
    17    35    37   am
    18    35    34    1
    19   116   117    1
    20   116   115    1
    21   107   104    1
    22   158   157    1
    23   111   109   ar
    24    34    33    1
    25   117   118    2
    26   106   105    2
    27    23    22    2
    28    28    27    1
    29    26    27    1
    30    26    25    1
    31    33    30    1
    32   104   105    1
    33   104   103    1
    34    22    21    1
    35   103    94   am
    36    24    25    1
    37    24    21    1
    38    29    30    1
    39   157   156    1
    40   151   149    1
    41    62    60    1
    42    21    20    1
    43    30    31    1
    44    97    96    1
    45    97    98    1
    46    94    93    1
    47    94    95    2
    48   148   149    1
    49   148   150    1
    50   148   145    1
    51    96    93    1
    52    93    92    1
    53    61    60    1
    54   147   146    2
    55   156   153    1
    56    88    87    2
    57    17    19   ar
    58    17    15   ar
    59    60    59    1
    60    32    31    2
    61    91    89    1
    62    19    18   ar
    63    31    38   am
    64   129   128    2
    65    73    71    1
    66    99    98    1
    67    99   100    2
    68   144   145    1
    69   144   137   am
    70   146   145    1
    71    92    87   am
    72    87    86    1
    73    15    14   ar
    74    72    71    1
    75   134   132   ar
    76    71    70    2
    77   131   132    1
    78   131   130    1
    79   102   100    1
    80   132   133   ar
    81   153   152    1
    82   153   154    1
    83    59    56    1
    84   100   101    1
    85   128   135   am
    86   128   127    1
    87    38    39    1
    88   136   137    1
    89   136   135    1
    90   136   139    1
    91    89    86    1
    92    89    90    1
    93    70    69    1
    94    18    16   ar
    95   126   127    1
    96   137   138    2
    97   140   139    1
    98   140   141    1
    99    86    85    1
   100   142   141    1
   101   142   143    1
   102    14    16   ar
   103    14    13    1
   104    69    68    1
   105   127   130    1
   106   154   155    2
   107    56    55    1
   108    56    57    1
   109    39    42    1
   110    39    40    1
   111    68    67    1
   112    42    43    1
   113    12    11    2
   114    43    44    1
   115    13    10    1
   116    85    76   am
   117    45    44   ar
   118    11    10    1
   119    57    58    2
   120    44    46   ar
   121    67    64    1
   122    40    41    2
   123    40    47   am
   124    77    76    2
   125    76    75    1
   126    10     9    1
   127    64    63    1
   128    64    65    1
   129    47    48    1
   130    83    82    1
   131    74    75    1
   132     7     8    1
   133     7     6    1
   134    75    78    1
   135    65    66    2
   136    84    82    1
   137    82    81    2
   138    48    51    1
   139    48    49    1
   140    78    79    1
   141    79    80    1
   142     4     3    2
   143     6     5    1
   144    51    52    1
   145    49    50    2
   146    81    80    1
   147     5     2    1
   148     3     2    1
   149    52    53    1
   150    52    54    1
   151     2     1    1
