@<TRIPOS>MOLECULE
tmp/1w7hA00.pdb
 129 121 0 0 0
SMALL
GASTEIGER

@<TRIPOS>ATOM
      1  N         23.7430   32.8090   21.1540 N.3    27  VAL27      -0.1245
      2  CA        24.7460   32.8250   22.2120 C.3    27  VAL27       0.1561
      3  C         24.8900   31.4490   22.8590 C.2    27  VAL27       0.2260
      4  O         24.0340   30.5770   22.6880 O.2    27  VAL27      -0.2867
      5  CB        24.4210   33.8900   23.2840 C.3    27  VAL27       0.0252
      6  CG1       23.1800   33.5070   24.0700 C.3    27  VAL27       0.0019
      7  CG2       25.6080   34.1150   24.2050 C.3    27  VAL27       0.0019
      8  N         23.6870   26.1620   26.4890 N.3    32  TYR32      -0.1241
      9  CA        22.5640   26.3830   27.3960 C.3    32  TYR32       0.1605
     10  C         21.2510   25.9530   26.7520 C.2    32  TYR32       0.2264
     11  O         20.1710   26.2790   27.2450 O.2    32  TYR32      -0.2867
     12  CB        22.4830   27.8590   27.7860 C.3    32  TYR32       0.0534
     13  CG        23.7090   28.3750   28.5030 C.ar   32  TYR32      -0.0201
     14  CD1       24.0200   27.9490   29.7890 C.ar   32  TYR32      -0.0009
     15  CD2       24.5580   29.2900   27.8920 C.ar   32  TYR32      -0.0009
     16  CE1       25.1400   28.4210   30.4470 C.ar   32  TYR32       0.0417
     17  CE2       25.6790   29.7670   28.5410 C.ar   32  TYR32       0.0417
     18  CZ        25.9660   29.3300   29.8190 C.ar   32  TYR32       0.1957
     19  OH        27.0840   29.8070   30.4660 O.3    32  TYR32      -0.2866
     20  N         19.7320   29.3030   22.6440 N.3    35  VAL35      -0.1245
     21  CA        19.6050   30.6020   23.3040 C.3    35  VAL35       0.1561
     22  C         20.0760   31.7670   22.4290 C.2    35  VAL35       0.2260
     23  O         21.1330   31.6890   21.7980 O.2    35  VAL35      -0.2867
     24  CB        20.3890   30.6410   24.6330 C.3    35  VAL35       0.0252
     25  CG1       20.3040   32.0310   25.2630 C.3    35  VAL35       0.0019
     26  CG2       19.8580   29.5890   25.5940 C.3    35  VAL35       0.0019
     27  N         18.2830   37.1190   27.8840 N.3    48  ALA48      -0.1245
     28  CA        18.4860   35.8470   27.2050 C.3    48  ALA48       0.1562
     29  C         17.1390   35.2060   26.9160 C.2    48  ALA48       0.2260
     30  O         16.2930   35.0950   27.8040 O.2    48  ALA48      -0.2867
     31  CB        19.3430   34.9170   28.0580 C.3    48  ALA48       0.0290
     32  N         15.3730   31.7520   25.6100 N.3    50  LYS50      -0.1245
     33  CA        15.5480   30.3420   25.2750 C.3    50  LYS50       0.1561
     34  C         14.3290   29.7580   24.5870 C.2    50  LYS50       0.2260
     35  O         13.2050   29.8830   25.0760 O.2    50  LYS50      -0.2867
     36  CB        15.9100   29.5110   26.5090 C.3    50  LYS50       0.0271
     37  CG        16.1180   28.0300   26.1930 C.3    50  LYS50       0.0035
     38  CD        16.7710   27.2890   27.3480 C.3    50  LYS50       0.0206
     39  CE        15.9110   27.3370   28.6030 C.3    50  LYS50       0.1093
     40  NZ        16.5140   26.5450   29.7140 N.3    50  LYS50      -0.1314
     41  N         10.4180   23.0580   34.9390 N.3    68  GLU68      -0.1245
     42  CA        11.2310   24.2590   34.7770 C.3    68  GLU68       0.1567
     43  C         10.3990   25.5500   34.8050 C.2    68  GLU68       0.2260
     44  O         10.8020   26.5450   35.4110 O.2    68  GLU68      -0.2867
     45  CB        12.0940   24.1800   33.5110 C.3    68  GLU68       0.0388
     46  CG        12.7760   25.4930   33.1710 C.3    68  GLU68       0.1160
     47  CD        13.7910   25.3720   32.0420 C.2    68  GLU68       0.3649
     48  OE1       13.5280   24.6350   31.0640 O.co2  68  GLU68      -0.2457
     49  OE2       14.8490   26.0320   32.1260 O.co2  68  GLU68      -0.2457
     50  N         10.8940   28.4680   37.7280 N.3    72  LEU72      -0.1245
     51  CA        11.2290   29.8240   37.2990 C.3    72  LEU72       0.1561
     52  C         10.1720   30.8710   37.6600 C.2    72  LEU72       0.2260
     53  O         10.5120   32.0060   38.0150 O.2    72  LEU72      -0.2867
     54  CB        11.5260   29.8560   35.7980 C.3    72  LEU72       0.0270
     55  CG        12.9720   29.6570   35.3260 C.3    72  LEU72       0.0019
     56  CD1       13.7430   28.7000   36.2020 C.3    72  LEU72       0.0001
     57  CD2       13.0140   29.2190   33.8620 C.3    72  LEU72       0.0001
     58  N         18.0910   33.6310   39.9460 N.3    81  ILE81      -0.1245
     59  CA        17.5830   33.8920   38.6050 C.3    81  ILE81       0.1561
     60  C         16.0540   33.8430   38.6140 C.2    81  ILE81       0.2260
     61  O         15.4650   32.9170   39.1660 O.2    81  ILE81      -0.2867
     62  CB        18.1210   32.8530   37.5950 C.3    81  ILE81       0.0252
     63  CG1       17.8020   33.2860   36.1650 C.3    81  ILE81       0.0019
     64  CG2       17.5520   31.4620   37.8830 C.3    81  ILE81       0.0019
     65  CD1       18.5690   34.5160   35.7310 C.3    81  ILE81       0.0001
     66  N         11.3300   31.1770   26.9490 N.3   101  LEU101     -0.1231
     67  CA        11.5480   31.7300   28.2880 C.3   101  LEU101      0.1693
     68  C         12.5470   32.8930   28.2380 C.2   101  LEU101      0.2592
     69  O         13.4940   32.8660   27.4540 O.2   101  LEU101     -0.2718
     70  CB        12.1070   30.6480   29.2160 C.3   101  LEU101      0.0284
     71  CG        11.2970   29.3590   29.3760 C.3   101  LEU101      0.0019
     72  CD1       12.1270   28.3000   30.0990 C.3   101  LEU101      0.0001
     73  CD2        9.9870   29.6190   30.1120 C.3   101  LEU101      0.0001
     74  N         12.3440   33.8960   29.0890 N.am  102  VAL102     -0.1966
     75  CA        13.1660   35.1050   29.0660 C.3   102  VAL102      0.1727
     76  C         13.6870   35.4870   30.4530 C.2   102  VAL102      0.2617
     77  O         12.9120   35.6230   31.4010 O.2   102  VAL102     -0.2715
     78  CB        12.3860   36.3220   28.5020 C.3   102  VAL102      0.0290
     79  CG1       13.3210   37.5220   28.3490 C.3   102  VAL102      0.0023
     80  CG2       11.7070   35.9770   27.1780 C.3   102  VAL102      0.0023
     81  N         15.0000   35.6800   30.5560 N.am  103  THR103     -0.1937
     82  CA        15.6350   36.0990   31.8040 C.3   103  THR103      0.2028
     83  C         16.6840   37.1900   31.5490 C.2   103  THR103      0.2642
     84  O         17.0410   37.4560   30.4030 O.2   103  THR103     -0.2714
     85  CB        16.3260   34.9040   32.4940 C.3   103  THR103      0.1808
     86  OG1       17.3450   34.3770   31.6310 O.3   103  THR103     -0.2208
     87  CG2       15.3140   33.8080   32.7880 C.3   103  THR103      0.0379
     88  N         17.1630   37.8170   32.6240 N.am  104  HIS104     -0.1959
     89  CA        18.3000   38.7410   32.5580 C.3   104  HIS104      0.1787
     90  C         19.4770   38.1030   31.8290 C.2   104  HIS104      0.2620
     91  O         19.8400   36.9600   32.1040 O.2   104  HIS104     -0.2715
     92  CB        18.7550   39.1320   33.9690 C.3   104  HIS104      0.0785
     93  CG        17.7510   39.9370   34.7330 C.ar  104  HIS104      0.0821
     94  ND1       17.4960   41.2640   34.4580 N.ar  104  HIS104     -0.2267
     95  CD2       16.9360   39.6030   35.7610 C.ar  104  HIS104      0.1154
     96  CE1       16.5670   41.7120   35.2840 C.ar  104  HIS104      0.1986
     97  NE2       16.2100   40.7240   36.0850 N.ar  104  HIS104     -0.2212
     98  N         20.0770   38.8420   30.9040 N.am  105  LEU105     -0.1963
     99  CA        21.3200   38.3930   30.2850 C.3   105  LEU105      0.1728
    100  C         22.4390   38.4300   31.3280 C.2   105  LEU105      0.2616
    101  O         22.7570   39.4880   31.8660 O.2   105  LEU105     -0.2715
    102  CB        21.6690   39.2740   29.0800 C.3   105  LEU105      0.0311
    103  CG        22.8400   38.8410   28.1930 C.3   105  LEU105      0.0022
    104  CD1       22.6030   37.4490   27.6250 C.3   105  LEU105      0.0001
    105  CD2       23.0690   39.8520   27.0630 C.3   105  LEU105      0.0001
    106  N         23.0160   37.2690   31.6250 N.am  106  MET106     -0.1977
    107  CA        24.1890   37.1980   32.4960 C.3   106  MET106      0.1605
    108  C         25.4720   37.2020   31.6620 C.2   106  MET106      0.2287
    109  O         25.5280   36.6140   30.5810 O.2   106  MET106     -0.2864
    110  CB        24.1480   35.9480   33.3860 C.3   106  MET106      0.0413
    111  CG        22.9070   35.8070   34.2730 C.3   106  MET106      0.0598
    112  SD        22.4410   37.2890   35.2130 S.3   106  MET106     -0.1393
    113  CE        23.6880   37.3610   36.4700 C.3   106  MET106      0.0692
    114  N         22.0330   30.2710   39.4310 N.3   164  LEU164     -0.1231
    115  CA        21.3740   29.9180   38.1670 C.3   164  LEU164      0.1693
    116  C         21.2260   28.3980   37.9990 C.2   164  LEU164      0.2592
    117  O         21.7350   27.6120   38.8030 O.2   164  LEU164     -0.2718
    118  CB        22.1800   30.4540   36.9730 C.3   164  LEU164      0.0284
    119  CG        22.7460   31.8790   36.9880 C.3   164  LEU164      0.0019
    120  CD1       23.6540   32.0940   35.7810 C.3   164  LEU164      0.0001
    121  CD2       21.6450   32.9210   37.0180 C.3   164  LEU164      0.0001
    122  N         20.5410   28.0030   36.9270 N.am  165  ASP165     -0.1974
    123  CA        20.5380   26.6220   36.4470 C.3   165  ASP165      0.1709
    124  C         20.3540   25.5790   37.5440 C.2   165  ASP165      0.2293
    125  O         21.2730   24.8120   37.8530 O.2   165  ASP165     -0.2864
    126  CB        21.7970   26.3080   35.6270 C.3   165  ASP165      0.1436
    127  CG        21.9290   27.1780   34.3770 C.2   165  ASP165      0.3671
    128  OD1       20.9040   27.4530   33.7090 O.co2 165  ASP165     -0.2456
    129  OD2       23.0720   27.5750   34.0530 O.co2 165  ASP165     -0.2456
@<TRIPOS>BOND
     1     1     2    1
     2    23    22    2
     3     2     3    1
     4     2     5    1
     5    22    21    1
     6    20    21    1
     7     4     3    2
     8     5     6    1
     9     5     7    1
    10    21    24    1
    11    34    35    2
    12    34    33    1
    13    24    25    1
    14    24    26    1
    15    33    32    1
    16    33    36    1
    17    37    36    1
    18    37    38    1
    19     8     9    1
    20    10    11    2
    21    10     9    1
    22    29    28    1
    23    29    30    2
    24    66    67    1
    25   105   103    1
    26    80    78    1
    27    28    27    1
    28    28    31    1
    29    38    39    1
    30     9    12    1
    31    69    68    2
    32   104   103    1
    33    12    13    1
    34    15    13   ar
    35    15    17   ar
    36   103   102    1
    37    68    67    1
    38    68    74   am
    39    67    70    1
    40    79    78    1
    41    78    75    1
    42    13    14   ar
    43    17    18   ar
    44    39    40    1
    45    75    74    1
    46    75    76    1
    47   102    99    1
    48    70    71    1
    49    71    72    1
    50    71    73    1
    51    14    16   ar
    52    18    16   ar
    53    18    19    1
    54    99    98    1
    55    99   100    1
    56    84    83    2
    57    76    81   am
    58    76    77    2
    59    81    82    1
    60   109   108    2
    61    98    90   am
    62    48    47   ar
    63   100   106   am
    64   100   101    2
    65    83    82    1
    66    83    88   am
    67   106   107    1
    68    86    85    1
    69   108   107    1
    70    82    85    1
    71    90    91    2
    72    90    89    1
    73    47    49   ar
    74    47    46    1
    75    85    87    1
    76   107   110    1
    77    89    88    1
    78    89    92    1
    79    46    45    1
    80   110   111    1
    81    45    42    1
    82   128   127   ar
    83    57    55    1
    84    92    93    1
    85   129   127   ar
    86   111   112    1
    87   127   126    1
    88    94    93   ar
    89    94    96   ar
    90    93    95   ar
    91    42    43    1
    92    42    41    1
    93    43    44    2
    94   112   113    1
    95    96    97   ar
    96    55    54    1
    97    55    56    1
    98   126   123    1
    99    65    63    1
   100    95    97   ar
   101   120   119    1
   102    54    51    1
   103    63    62    1
   104   123   122    1
   105   123   124    1
   106   122   116   am
   107   118   119    1
   108   118   115    1
   109   119   121    1
   110    51    52    1
   111    51    50    1
   112   124   125    2
   113    62    64    1
   114    62    59    1
   115    52    53    2
   116   116   115    1
   117   116   117    2
   118   115   114    1
   119    59    60    1
   120    59    58    1
   121    60    61    2
