@<TRIPOS>MOLECULE
tmp/1w7jA00.pdb
 184 181 0 0 0
SMALL
GASTEIGER

@<TRIPOS>ATOM
      1  N         20.2130  -16.5350   15.0190 N.3    98  ILE98      -0.1231
      2  CA        20.1320  -15.7240   16.2310 C.3    98  ILE98       0.1692
      3  C         19.0130  -14.6730   16.1670 C.2    98  ILE98       0.2592
      4  O         18.6300  -14.1210   17.2050 O.2    98  ILE98      -0.2718
      5  CB        21.4840  -15.0560   16.5500 C.3    98  ILE98       0.0266
      6  CG1       21.8640  -14.0190   15.5010 C.3    98  ILE98       0.0019
      7  CG2       22.5980  -16.0930   16.7020 C.3    98  ILE98       0.0020
      8  CD1       22.9190  -13.0270   15.9870 C.3    98  ILE98       0.0001
      9  N         18.5150  -14.3920   14.9630 N.am   99  TYR99      -0.1976
     10  CA        17.5140  -13.3450   14.7430 C.3    99  TYR99       0.1639
     11  C         16.1820  -13.9620   14.3390 C.2    99  TYR99       0.2290
     12  O         16.1540  -14.8320   13.4730 O.2    99  TYR99      -0.2864
     13  CB        17.9520  -12.3800   13.6390 C.3    99  TYR99       0.0560
     14  CG        19.1370  -11.5120   13.9610 C.ar   99  TYR99      -0.0198
     15  CD1       19.1820  -10.7290   15.1150 C.ar   99  TYR99      -0.0009
     16  CD2       20.2310  -11.4580   13.0930 C.ar   99  TYR99      -0.0009
     17  CE1       20.2880   -9.9300   15.3920 C.ar   99  TYR99       0.0417
     18  CE2       21.3170  -10.6570   13.3600 C.ar   99  TYR99       0.0417
     19  CZ        21.3530   -9.9060   14.5080 C.ar   99  TYR99       0.1957
     20  OH        22.4780   -9.1470   14.7520 O.3    99  TYR99      -0.2866
     21  N         22.3300  -13.8510   21.7390 N.3   110  ASN110     -0.1226
     22  CA        23.7720  -13.6790   21.6560 C.3   110  ASN110      0.1770
     23  C         24.4470  -15.0290   21.3970 C.2   110  ASN110      0.2439
     24  O         24.3520  -15.9110   22.2310 O.2   110  ASN110     -0.2733
     25  CB        24.2800  -13.0780   22.9770 C.3   110  ASN110      0.1168
     26  CG        25.7400  -12.6550   22.9270 C.2   110  ASN110      0.2627
     27  OD1       26.5090  -13.0630   22.0430 O.2   110  ASN110     -0.2716
     28  ND2       26.1320  -11.8060   23.8850 N.am  110  ASN110     -0.0877
     29  N         25.1190  -15.1930   20.2550 N.am  111  PRO111     -0.2718
     30  CA        25.7850  -16.4620   19.9420 C.3   111  PRO111      0.1535
     31  C         27.1420  -16.6450   20.6390 C.2   111  PRO111      0.2599
     32  O         27.6480  -17.7590   20.6690 O.2   111  PRO111     -0.2715
     33  CB        26.0030  -16.3600   18.4190 C.3   111  PRO111      0.0310
     34  CG        26.2190  -14.9050   18.1610 C.3   111  PRO111      0.0237
     35  CD        25.3430  -14.1890   19.1920 C.3   111  PRO111      0.0939
     36  N         27.7410  -15.5630   21.1290 N.am  112  TYR112     -0.1960
     37  CA        29.1150  -15.5650   21.6380 C.3   112  TYR112      0.1771
     38  C         30.0960  -16.2310   20.6610 C.2   112  TYR112      0.2619
     39  O         31.0430  -16.9050   21.0770 O.2   112  TYR112     -0.2715
     40  CB        29.1750  -16.2400   23.0060 C.3   112  TYR112      0.0574
     41  CG        28.6510  -15.3800   24.1350 C.ar  112  TYR112     -0.0198
     42  CD1       29.3720  -14.2800   24.5940 C.ar  112  TYR112     -0.0009
     43  CD2       27.4410  -15.6650   24.7410 C.ar  112  TYR112     -0.0009
     44  CE1       28.8940  -13.4950   25.6480 C.ar  112  TYR112      0.0417
     45  CE2       26.9550  -14.8910   25.7880 C.ar  112  TYR112      0.0417
     46  CZ        27.6870  -13.8030   26.2250 C.ar  112  TYR112      0.1957
     47  OH        27.2140  -13.0590   27.2650 O.3   112  TYR112     -0.2866
     48  N         29.8420  -16.0210   19.3700 N.am  113  GLU113     -0.1963
     49  CA        30.6620  -16.5490   18.2840 C.3   113  GLU113      0.1733
     50  C         30.5280  -15.6000   17.1040 C.2   113  GLU113      0.2616
     51  O         29.4320  -15.1140   16.8280 O.2   113  GLU113     -0.2715
     52  CB        30.1450  -17.9250   17.8780 C.3   113  GLU113      0.0429
     53  CG        30.9380  -18.6350   16.8040 C.3   113  GLU113      0.1163
     54  CD        30.3620  -20.0050   16.5320 C.2   113  GLU113      0.3649
     55  OE1       30.4640  -20.8850   17.4130 O.co2 113  GLU113     -0.2457
     56  OE2       29.7730  -20.1880   15.4550 O.co2 113  GLU113     -0.2457
     57  N         31.6250  -15.3510   16.3970 N.am  114  GLN114     -0.1963
     58  CA        31.6020  -14.4560   15.2490 C.3   114  GLN114      0.1733
     59  C         30.8850  -15.1360   14.0750 C.2   114  GLN114      0.2616
     60  O         31.1690  -16.2850   13.7300 O.2   114  GLN114     -0.2715
     61  CB        33.0270  -14.0190   14.8610 C.3   114  GLN114      0.0408
     62  CG        33.8090  -13.2960   15.9870 C.3   114  GLN114      0.0908
     63  CD        33.2270  -11.9400   16.3680 C.2   114  GLN114      0.2608
     64  OE1       33.1240  -11.0470   15.5240 O.2   114  GLN114     -0.2717
     65  NE2       32.8420  -11.7840   17.6410 N.am  114  GLN114     -0.0878
     66  N         29.9200  -14.4340   13.4940 N.am  115  LEU115     -0.1977
     67  CA        29.1210  -14.9650   12.3980 C.3   115  LEU115      0.1596
     68  C         29.4190  -14.1280   11.1630 C.2   115  LEU115      0.2287
     69  O         29.6760  -12.9400   11.2840 O.2   115  LEU115     -0.2864
     70  CB        27.6250  -14.8850   12.7200 C.3   115  LEU115      0.0297
     71  CG        27.1530  -15.4130   14.0780 C.3   115  LEU115      0.0022
     72  CD1       25.6580  -15.1800   14.2400 C.3   115  LEU115      0.0001
     73  CD2       27.4800  -16.8760   14.2230 C.3   115  LEU115      0.0001
     74  N         27.6170   -9.7480    8.7300 N.3   118  TYR118     -0.1241
     75  CA        27.6680   -8.3020    8.9650 C.3   118  TYR118      0.1605
     76  C         28.5490   -7.4960    7.9970 C.2   118  TYR118      0.2264
     77  O         28.7510   -6.2970    8.1910 O.2   118  TYR118     -0.2867
     78  CB        28.1290   -8.0260   10.3900 C.3   118  TYR118      0.0534
     79  CG        27.2370   -8.6270   11.4490 C.ar  118  TYR118     -0.0201
     80  CD1       25.9700   -8.1070   11.7010 C.ar  118  TYR118     -0.0009
     81  CD2       27.6580   -9.7190   12.1950 C.ar  118  TYR118     -0.0009
     82  CE1       25.1460   -8.6710   12.6880 C.ar  118  TYR118      0.0417
     83  CE2       26.8520  -10.2820   13.1650 C.ar  118  TYR118      0.0417
     84  CZ        25.5950   -9.7540   13.4070 C.ar  118  TYR118      0.1957
     85  OH        24.8030  -10.3230   14.3940 O.3   118  TYR118     -0.2866
     86  N         19.4680   -7.7340   29.2490 N.3   163  GLU163     -0.1231
     87  CA        20.4350   -7.8400   30.3400 C.3   163  GLU163      0.1699
     88  C         21.8240   -7.4800   29.9070 C.2   163  GLU163      0.2593
     89  O         22.1480   -7.4820   28.7090 O.2   163  GLU163     -0.2718
     90  CB        20.5180   -9.2900   30.8650 C.3   163  GLU163      0.0402
     91  CG        19.3190   -9.7250   31.6560 C.3   163  GLU163      0.1161
     92  CD        19.5500  -11.0490   32.3800 C.2   163  GLU163      0.3649
     93  OE1       20.7190  -11.4740   32.5410 O.co2 163  GLU163     -0.2457
     94  OE2       18.5570  -11.6450   32.8180 O.co2 163  GLU163     -0.2457
     95  N         22.6740   -7.2480   30.9000 N.am  164  SER164     -0.1938
     96  CA        24.1070   -7.0740   30.6550 C.3   164  SER164      0.2055
     97  C         24.6770   -8.3180   29.9790 C.2   164  SER164      0.2644
     98  O         24.4360   -9.4370   30.4260 O.2   164  SER164     -0.2714
     99  CB        24.8590   -6.7530   31.9590 C.3   164  SER164      0.2130
    100  OG        26.2790   -6.7430   31.7180 O.3   164  SER164     -0.2179
    101  N         25.4130   -8.1190   28.8850 N.am  165  GLY165     -0.1939
    102  CA        25.9420   -9.2100   28.0840 C.3   165  GLY165      0.2014
    103  C         25.0140   -9.7450   26.9950 C.2   165  GLY165      0.2639
    104  O         25.4150  -10.6140   26.2380 O.2   165  GLY165     -0.2714
    105  N         23.8010   -9.2090   26.8860 N.am  166  ALA166     -0.1963
    106  CA        22.8100   -9.7210   25.9350 C.3   166  ALA166      0.1728
    107  C         23.0870   -9.3680   24.4830 C.2   166  ALA166      0.2617
    108  O         22.6580  -10.0940   23.5960 O.2   166  ALA166     -0.2715
    109  CB        21.4230   -9.2680   26.3070 C.3   166  ALA166      0.0334
    110  N         23.8020   -8.2730   24.2380 N.am  167  GLY167     -0.1940
    111  CA        24.0700   -7.8160   22.8800 C.3   167  GLY167      0.2014
    112  C         23.5210   -6.4550   22.4730 C.2   167  GLY167      0.2639
    113  O         23.4770   -6.1590   21.2770 O.2   167  GLY167     -0.2714
    114  N         23.1180   -5.6180   23.4360 N.am  168  LYS168     -0.1963
    115  CA        22.5810   -4.2960   23.1320 C.3   168  LYS168      0.1728
    116  C         23.5320   -3.4020   22.3480 C.2   168  LYS168      0.2617
    117  O         23.1400   -2.8000   21.3620 O.2   168  LYS168     -0.2715
    118  CB        22.2000   -3.5600   24.4140 C.3   168  LYS168      0.0311
    119  CG        21.0060   -4.1910   25.1430 C.3   168  LYS168      0.0038
    120  CD        20.5990   -3.3910   26.4000 C.3   168  LYS168      0.0206
    121  CE        21.7400   -3.2240   27.4350 C.3   168  LYS168      0.1093
    122  NZ        22.2190   -4.5160   28.0620 N.3   168  LYS168     -0.1314
    123  N         24.7690   -3.3070   22.8200 N.am  169  THR169     -0.1937
    124  CA        25.7390   -2.3870   22.2730 C.3   169  THR169      0.2028
    125  C         26.2280   -2.8920   20.9170 C.2   169  THR169      0.2642
    126  O         26.4100   -2.1050   19.9980 O.2   169  THR169     -0.2714
    127  CB        26.8780   -2.2000   23.2780 C.3   169  THR169      0.1808
    128  OG1       26.3430   -1.5660   24.4610 O.3   169  THR169     -0.2208
    129  CG2       27.9330   -1.2450   22.7670 C.3   169  THR169      0.0379
    130  N         26.3930   -4.2040   20.7880 N.am  170  VAL170     -0.1977
    131  CA        26.7100   -4.7930   19.4950 C.3   170  VAL170      0.1596
    132  C         25.5860   -4.4700   18.4950 C.2   170  VAL170      0.2287
    133  O         25.8760   -4.0500   17.3770 O.2   170  VAL170     -0.2864
    134  CB        26.9390   -6.3180   19.6030 C.3   170  VAL170      0.0276
    135  CG1       26.9660   -6.9950   18.2150 C.3   170  VAL170      0.0022
    136  CG2       28.2220   -6.5920   20.3470 C.3   170  VAL170      0.0022
    137  N         25.7900   -2.0600   15.0670 N.3   174  TYR174     -0.1241
    138  CA        25.4620   -2.5480   13.7220 C.3   174  TYR174      0.1605
    139  C         24.3800   -1.7010   13.0550 C.2   174  TYR174      0.2264
    140  O         24.4360   -1.4550   11.8400 O.2   174  TYR174     -0.2867
    141  CB        25.1070   -4.0320   13.7210 C.3   174  TYR174      0.0534
    142  CG        26.3230   -4.9240   13.7610 C.ar  174  TYR174     -0.0201
    143  CD1       27.3890   -4.7300   12.8790 C.ar  174  TYR174     -0.0009
    144  CD2       26.4170   -5.9590   14.6730 C.ar  174  TYR174     -0.0009
    145  CE1       28.5070   -5.5410   12.9200 C.ar  174  TYR174      0.0417
    146  CE2       27.5270   -6.7770   14.7140 C.ar  174  TYR174      0.0417
    147  CZ        28.5680   -6.5600   13.8350 C.ar  174  TYR174      0.1957
    148  OH        29.6740   -7.3620   13.8770 O.3   174  TYR174     -0.2866
    149  N         30.0540   -9.2110   31.5910 N.3   213  ASN213     -0.1240
    150  CA        30.4530   -8.7580   30.2690 C.3   213  ASN213      0.1653
    151  C         31.8320   -8.1050   30.3220 C.2   213  ASN213      0.2266
    152  O         32.0470   -7.1600   31.0850 O.2   213  ASN213     -0.2867
    153  CB        29.3750   -7.7790   29.7670 C.3   213  ASN213      0.1155
    154  CG        29.5990   -7.2740   28.3670 C.2   213  ASN213      0.2627
    155  OD1       30.5580   -7.6470   27.6770 O.2   213  ASN213     -0.2716
    156  ND2       28.6710   -6.4060   27.9120 N.am  213  ASN213     -0.0877
    157  N         33.0640   -6.2110   28.2050 N.3   215  ASN215     -0.1225
    158  CA        32.8980   -4.8600   27.6800 C.3   215  ASN215      0.1785
    159  C         31.5400   -4.2340   28.0760 C.2   215  ASN215      0.2598
    160  O         30.8080   -3.7100   27.2320 O.2   215  ASN215     -0.2718
    161  CB        33.0660   -4.8800   26.1470 C.3   215  ASN215      0.1169
    162  CG        33.1630   -3.4800   25.5570 C.2   215  ASN215      0.2627
    163  OD1       33.8100   -2.6050   26.1460 O.2   215  ASN215     -0.2716
    164  ND2       32.5080   -3.2550   24.3990 N.am  215  ASN215     -0.0877
    165  N         31.2280   -4.2770   29.3690 N.am  216  SER216     -0.1938
    166  CA        29.9610   -3.7480   29.8810 C.3   216  SER216      0.2055
    167  C         29.8880   -2.2270   29.7920 C.2   216  SER216      0.2643
    168  O         30.8230   -1.5180   30.1900 O.2   216  SER216     -0.2714
    169  CB        29.7480   -4.1400   31.3350 C.3   216  SER216      0.2130
    170  OG        28.4320   -3.7820   31.7590 O.3   216  SER216     -0.2179
    171  N         28.7800   -1.7450   29.2560 N.am  217  SER217     -0.1949
    172  CA        28.4530   -0.3270   29.2650 C.3   217  SER217      0.1924
    173  C         27.9760    0.0580   30.6660 C.2   217  SER217      0.2314
    174  O         26.9490   -0.4490   31.1420 O.2   217  SER217     -0.2863
    175  CB        27.3430   -0.0240   28.2640 C.3   217  SER217      0.2116
    176  OG        27.5610   -0.6570   27.0270 O.3   217  SER217     -0.2180
    177  N         20.4730    2.7100   23.8200 N.3   436  ASP436     -0.1239
    178  CA        21.1800    1.5580   24.3780 C.3   436  ASP436      0.1674
    179  C         21.3390    1.8530   25.8830 C.2   436  ASP436      0.2266
    180  O         22.2510    2.5790   26.2840 O.2   436  ASP436     -0.2867
    181  CB        22.5420    1.4450   23.6810 C.3   436  ASP436      0.1410
    182  CG        23.4480    0.3950   24.2740 C.2   436  ASP436      0.3668
    183  OD1       24.6620    0.4020   23.9030 O.co2 436  ASP436     -0.2456
    184  OD2       23.0760   -0.4600   25.1140 O.co2 436  ASP436     -0.2456
@<TRIPOS>BOND
     1    76    77    2
     2    76    75    1
     3    74    75    1
     4    75    78    1
     5    78    79    1
     6    68    69    2
     7    68    67    1
     8    79    80   ar
     9    79    81   ar
    10    80    82   ar
    11   140   139    2
    12    81    83   ar
    13    67    70    1
    14    67    66    1
    15    82    84   ar
    16    70    71    1
    17   143   145   ar
    18   143   142   ar
    19   145   147   ar
    20   139   138    1
    21    16    18   ar
    22    16    14   ar
    23    83    84   ar
    24    18    19   ar
    25    84    85    1
    26    12    11    2
    27    66    59   am
    28    13    14    1
    29    13    10    1
    30   141   138    1
    31   141   142    1
    32   138   137    1
    33    60    59    2
    34   142   144   ar
    35   147   148    1
    36   147   146   ar
    37    14    15   ar
    38    59    58    1
    39    71    73    1
    40    71    72    1
    41    11    10    1
    42    19    20    1
    43    19    17   ar
    44   144   146   ar
    45    10     9    1
    46    61    58    1
    47    61    62    1
    48     9     3   am
    49     1     2    1
    50    15    17   ar
    51    58    57    1
    52    56    54   ar
    53     6     8    1
    54     6     5    1
    55    64    63    2
    56    62    63    1
    57     3     2    1
    58     3     4    2
    59     2     5    1
    60    63    65   am
    61    57    50   am
    62    54    53    1
    63    54    55   ar
    64     5     7    1
    65    53    52    1
    66    51    50    2
    67    50    49    1
    68   133   132    2
    69    52    49    1
    70    34    33    1
    71    34    35    1
    72   135   134    1
    73    49    48    1
    74    33    30    1
    75   132   131    1
    76    35    29    1
    77    48    38   am
    78   131   134    1
    79   131   130    1
    80   134   136    1
    81    30    29    1
    82    30    31    1
    83   126   125    2
    84    29    23   am
    85    31    32    2
    86    31    36   am
    87    38    39    2
    88    38    37    1
    89   130   125   am
    90   125   124    1
    91    36    37    1
    92   113   112    2
    93   117   116    2
    94    23    22    1
    95    23    24    2
    96    37    40    1
    97    22    21    1
    98    22    25    1
    99    27    26    2
   100   124   123    1
   101   124   127    1
   102   116   123   am
   103   116   115    1
   104   112   111    1
   105   112   114   am
   106   129   127    1
   107   111   110    1
   108    26    25    1
   109    26    28   am
   110    40    41    1
   111   115   114    1
   112   115   118    1
   113   127   128    1
   114   108   107    2
   115   181   182    1
   116   181   178    1
   117   177   178    1
   118   183   182   ar
   119    41    42   ar
   120    41    43   ar
   121   110   107   am
   122   182   184   ar
   123   178   179    1
   124   164   162   am
   125   118   119    1
   126   107   106    1
   127    42    44   ar
   128    43    45   ar
   129   119   120    1
   130   162   163    2
   131   162   161    1
   132    44    46   ar
   133    45    46   ar
   134   179   180    2
   135   106   109    1
   136   106   105    1
   137   161   158    1
   138    46    47    1
   139   104   103    2
   140   120   121    1
   141   105   103   am
   142   103   102    1
   143   176   175    1
   144   160   159    2
   145   121   122    1
   146   155   154    2
   147   158   159    1
   148   158   157    1
   149   156   154   am
   150   159   165   am
   151   102   101    1
   152   175   172    1
   153   154   153    1
   154    89    88    2
   155   101    97   am
   156    86    87    1
   157   171   172    1
   158   171   167   am
   159   172   173    1
   160   165   166    1
   161   153   150    1
   162   167   166    1
   163   167   168    2
   164   166   169    1
   165    88    87    1
   166    88    95   am
   167    97    98    2
   168    97    96    1
   169   150   151    1
   170   150   149    1
   171   151   152    2
   172    87    90    1
   173    96    95    1
   174    96    99    1
   175   173   174    2
   176    90    91    1
   177   169   170    1
   178    91    92    1
   179   100    99    1
   180    92    93   ar
   181    92    94   ar
