@<TRIPOS>MOLECULE
tmp/1w7mA00.pdb
 116 112 0 0 0
SMALL
GASTEIGER

@<TRIPOS>ATOM
      1  N         -1.0870  133.6360   -6.7000 N.3    15  TRP15      -0.1241
      2  CA         0.3720  133.5090   -6.6270 C.3    15  TRP15       0.1605
      3  C          0.8630  132.5640   -7.7330 C.2    15  TRP15       0.2264
      4  O          0.9070  132.9760   -8.9240 O.2    15  TRP15      -0.2867
      5  CB         0.8560  133.1920   -5.1760 C.3    15  TRP15       0.0550
      6  CG         0.5250  134.4110   -4.2350 C.ar   15  TRP15       0.0003
      7  CD1       -0.5000  134.5110   -3.3070 C.ar   15  TRP15       0.0946
      8  CD2        1.2310  135.6600   -4.1650 C.ar   15  TRP15       0.0152
      9  NE1       -0.4620  135.7320   -2.6820 N.ar   15  TRP15      -0.2442
     10  CE2        0.5880  136.4570   -3.1870 C.ar   15  TRP15       0.0810
     11  CE3        2.3510  136.1910   -4.8340 C.ar   15  TRP15       0.0012
     12  CZ2        1.0280  137.7460   -2.8670 C.ar   15  TRP15       0.0191
     13  CZ3        2.7830  137.4620   -4.5180 C.ar   15  TRP15       0.0001
     14  CH2        2.1220  138.2270   -3.5430 C.ar   15  TRP15       0.0015
     15  N          8.2760  141.0100   -8.3880 N.3    31  GLY31      -0.1225
     16  CA         6.9900  140.6980   -7.7840 C.3    31  GLY31       0.1811
     17  C          7.1630  139.9030   -6.5180 C.2    31  GLY31       0.2280
     18  O          6.2360  139.6220   -5.8090 O.2    31  GLY31      -0.2866
     19  N          8.0440  139.2340   -2.7500 N.3    33  GLY33      -0.1210
     20  CA         8.1220  139.9950   -1.5090 C.3    33  GLY33       0.1956
     21  C          9.2490  139.5890   -0.5770 C.2    33  GLY33       0.2611
     22  O          9.0530  139.4970    0.6270 O.2    33  GLY33      -0.2717
     23  N         10.4340  139.3430   -1.1100 N.am   34  PHE34      -0.1976
     24  CA        11.5710  138.9250   -0.2880 C.3    34  PHE34       0.1639
     25  C         12.8960  139.4580   -0.9060 C.2    34  PHE34       0.2290
     26  O         12.9780  139.6190   -2.1090 O.2    34  PHE34      -0.2864
     27  CB        11.5780  137.3900   -0.1240 C.3    34  PHE34       0.0560
     28  CG        11.6750  136.6380   -1.4310 C.ar   34  PHE34      -0.0200
     29  CD1       12.9220  136.2720   -1.9570 C.ar   34  PHE34      -0.0042
     30  CD2       10.5140  136.2900   -2.1480 C.ar   34  PHE34      -0.0042
     31  CE1       13.0130  135.5690   -3.1790 C.ar   34  PHE34      -0.0003
     32  CE2       10.5950  135.5830   -3.3780 C.ar   34  PHE34      -0.0003
     33  CZ        11.8400  135.2250   -3.8900 C.ar   34  PHE34      -0.0000
     34  N          2.1290  135.1880    8.8030 N.3    98  TYR98      -0.1241
     35  CA         1.0410  134.4350    8.1440 C.3    98  TYR98       0.1605
     36  C          0.3260  133.4880    9.1280 C.2    98  TYR98       0.2264
     37  O         -0.9230  133.5120    9.2550 O.2    98  TYR98      -0.2867
     38  CB         1.5850  133.6310    6.9300 C.3    98  TYR98       0.0534
     39  CG         0.6210  133.5090    5.7770 C.ar   98  TYR98      -0.0201
     40  CD1        0.7090  134.3420    4.6320 C.ar   98  TYR98      -0.0009
     41  CD2       -0.3980  132.5520    5.8200 C.ar   98  TYR98      -0.0009
     42  CE1       -0.2150  134.2050    3.5610 C.ar   98  TYR98       0.0417
     43  CE2       -1.3050  132.4080    4.7800 C.ar   98  TYR98       0.0417
     44  CZ        -1.2180  133.2230    3.6640 C.ar   98  TYR98       0.1957
     45  OH        -2.1800  132.9920    2.6810 O.3    98  TYR98      -0.2866
     46  N         -3.4200  142.9790    1.7640 N.3   122  PHE122     -0.1241
     47  CA        -2.7080  141.7120    1.6730 C.3   122  PHE122      0.1605
     48  C         -3.7290  140.6000    1.4710 C.2   122  PHE122      0.2264
     49  O         -4.7050  140.4930    2.2360 O.2   122  PHE122     -0.2867
     50  CB        -1.9670  141.4590    2.9570 C.3   122  PHE122      0.0534
     51  CG        -1.1010  140.2670    2.9090 C.ar  122  PHE122     -0.0203
     52  CD1       -0.1560  140.1170    1.8910 C.ar  122  PHE122     -0.0042
     53  CD2       -1.2110  139.2830    3.8670 C.ar  122  PHE122     -0.0042
     54  CE1        0.6630  138.9960    1.8410 C.ar  122  PHE122     -0.0003
     55  CE2       -0.4250  138.1710    3.8480 C.ar  122  PHE122     -0.0003
     56  CZ         0.5180  138.0130    2.8410 C.ar  122  PHE122     -0.0000
     57  N          0.9850  146.6630    2.7090 N.3   179  ASN179     -0.1240
     58  CA         1.2290  145.8570    1.4900 C.3   179  ASN179      0.1653
     59  C         -0.0880  145.8450    0.7190 C.2   179  ASN179      0.2266
     60  O         -1.1200  145.4320    1.2970 O.2   179  ASN179     -0.2867
     61  CB         1.5320  144.4210    1.9440 C.3   179  ASN179      0.1155
     62  CG         2.0930  143.5130    0.8440 C.2   179  ASN179      0.2627
     63  OD1        2.0020  143.8090   -0.3540 O.2   179  ASN179     -0.2716
     64  ND2        2.6880  142.3800    1.2710 N.am  179  ASN179     -0.0877
     65  N          5.8500  145.0680    8.4630 N.3   210  TYR210     -0.1241
     66  CA         6.8370  146.0070    7.8680 C.3   210  TYR210      0.1605
     67  C          7.3580  147.0920    8.7830 C.2   210  TYR210      0.2264
     68  O          8.0880  147.9750    8.3120 O.2   210  TYR210     -0.2867
     69  CB         6.4360  146.5750    6.4820 C.3   210  TYR210      0.0534
     70  CG         6.2730  145.4620    5.5190 C.ar  210  TYR210     -0.0201
     71  CD1        7.3880  144.8580    4.9630 C.ar  210  TYR210     -0.0009
     72  CD2        4.9930  145.0040    5.1580 C.ar  210  TYR210     -0.0009
     73  CE1        7.2510  143.8010    4.0500 C.ar  210  TYR210      0.0417
     74  CE2        4.8380  143.9610    4.2580 C.ar  210  TYR210      0.0417
     75  CZ         5.9810  143.3510    3.6960 C.ar  210  TYR210      0.1957
     76  OH         5.8810  142.3020    2.7890 O.3   210  TYR210     -0.2866
     77  N         10.5760  139.7470    7.5990 N.3   241  LYS241     -0.1241
     78  CA        10.6530  141.1200    7.0920 C.3   241  LYS241      0.1604
     79  C         11.5460  141.9660    8.0290 C.2   241  LYS241      0.2264
     80  O         12.0810  142.9970    7.6360 O.2   241  LYS241     -0.2867
     81  CB         9.2430  141.7480    6.9450 C.3   241  LYS241      0.0527
     82  CG         8.1490  140.8720    6.1900 C.2   241  LYS241     -0.0273
     83  CD         8.5010  140.4850    4.6760 C.2   241  LYS241     -0.0103
     84  CE         7.5410  139.4020    3.9630 C.3   241  LYS241      0.1350
     85  NZ         6.0770  139.0400    4.5280 N.3   241  LYS241     -0.1262
     86  N         10.4480  131.9950    8.5320 N.3   249  LYS249     -0.1245
     87  CA         9.0280  131.8120    8.8900 C.3   249  LYS249      0.1561
     88  C          8.9010  131.6870   10.3920 C.2   249  LYS249      0.2260
     89  O          8.4380  130.6450   10.9100 O.2   249  LYS249     -0.2867
     90  CB         8.3740  130.5710    8.2480 C.3   249  LYS249      0.0271
     91  CG         7.9350  130.7170    6.7810 C.3   249  LYS249      0.0035
     92  CD         6.9990  131.8580    6.5500 C.3   249  LYS249      0.0206
     93  CE         5.5970  131.5040    6.9730 C.3   249  LYS249      0.1093
     94  NZ         4.7260  132.3620    6.1850 N.3   249  LYS249     -0.1314
     95  N          7.5490  147.6530   -0.9840 N.3   333  PHE333     -0.1241
     96  CA         6.8320  147.7700   -2.2380 C.3   333  PHE333      0.1605
     97  C          6.5090  149.1800   -2.6200 C.2   333  PHE333      0.2264
     98  O          6.2530  150.0350   -1.7610 O.2   333  PHE333     -0.2867
     99  CB         5.5090  146.9960   -2.1300 C.3   333  PHE333      0.0534
    100  CG         5.6930  145.6440   -1.6090 C.ar  333  PHE333     -0.0203
    101  CD1        6.2370  144.6640   -2.4140 C.ar  333  PHE333     -0.0042
    102  CD2        5.3270  145.3400   -0.3130 C.ar  333  PHE333     -0.0042
    103  CE1        6.4230  143.3850   -1.9490 C.ar  333  PHE333     -0.0003
    104  CE2        5.4990  144.0480    0.1980 C.ar  333  PHE333     -0.0003
    105  CZ         6.0530  143.0560   -0.6230 C.ar  333  PHE333     -0.0000
    106  N          2.4240  146.2800   -8.8840 N.3   392  ARG392     -0.1245
    107  CA         3.1770  146.3700   -7.6340 C.3   392  ARG392      0.1563
    108  C          4.6110  145.8820   -7.7900 C.2   392  ARG392      0.2260
    109  O          4.8580  144.7200   -8.2280 O.2   392  ARG392     -0.2867
    110  CB         2.4460  145.6290   -6.4900 C.3   392  ARG392      0.0307
    111  CG         3.2570  145.6320   -5.2370 C.3   392  ARG392      0.0489
    112  CD         2.8930  144.5890   -4.2310 C.3   392  ARG392      0.2205
    113  NE         3.9250  143.5760   -4.1630 N.pl3 392  ARG392     -0.0865
    114  CZ         3.8190  142.4710   -3.4860 C.cat 392  ARG392      0.5346
    115  NH1        2.7210  142.2280   -2.8090 N.pl3 392  ARG392      0.1354
    116  NH2        4.8210  141.6080   -3.4900 N.pl3 392  ARG392      0.1354
@<TRIPOS>BOND
     1     4     3    2
     2   106   107    1
     3    15    16    1
     4   109   108    2
     5   108   107    1
     6    16    17    1
     7     3     2    1
     8   107   110    1
     9     1     2    1
    10     2     5    1
    11    17    18    2
    12   110   111    1
    13   111   112    1
    14     5     6    1
    15    11    13   ar
    16    11     8   ar
    17    13    14   ar
    18     6     8   ar
    19     6     7   ar
    20   112   113    1
    21     8    10   ar
    22   113   114    2
    23    33    32   ar
    24    33    31   ar
    25    14    12   ar
    26   116   114    1
    27   114   115    1
    28    32    30   ar
    29     7     9   ar
    30    10    12   ar
    31    10     9   ar
    32    31    29   ar
    33    19    20    1
    34    97    96    1
    35    97    98    2
    36   101   103   ar
    37   101   100   ar
    38    96    99    1
    39    96    95    1
    40    30    28   ar
    41    99   100    1
    42    26    25    2
    43    29    28   ar
    44   103   105   ar
    45   100   102   ar
    46    20    21    1
    47    28    27    1
    48    23    21   am
    49    23    24    1
    50    25    24    1
    51   105   104   ar
    52    21    22    2
    53    63    62    2
    54   102   104   ar
    55    24    27    1
    56    59    60    2
    57    59    58    1
    58    62    64   am
    59    62    61    1
    60    48    47    1
    61    48    49    2
    62    58    61    1
    63    58    57    1
    64    47    46    1
    65    47    50    1
    66    54    52   ar
    67    54    56   ar
    68    52    51   ar
    69    45    44    1
    70    76    75    1
    71    56    55   ar
    72    51    50    1
    73    51    53   ar
    74    42    44   ar
    75    42    40   ar
    76    44    43   ar
    77    75    73   ar
    78    75    74   ar
    79    55    53   ar
    80    84    85    1
    81    84    83    1
    82    73    71   ar
    83    74    72   ar
    84    40    39   ar
    85    83    82    2
    86    43    41   ar
    87    71    70   ar
    88    72    70   ar
    89    70    69    1
    90    39    41   ar
    91    39    38    1
    92    94    93    1
    93    82    81    1
    94    69    66    1
    95    92    91    1
    96    92    93    1
    97    91    90    1
    98    38    35    1
    99    81    78    1
   100    78    77    1
   101    78    79    1
   102    80    79    2
   103    66    65    1
   104    66    67    1
   105    35    34    1
   106    35    36    1
   107    90    87    1
   108    68    67    2
   109    86    87    1
   110    87    88    1
   111    36    37    2
   112    88    89    2
