@<TRIPOS>MOLECULE
tmp/1w7mA01.pdb
 140 131 0 0 0
SMALL
GASTEIGER

@<TRIPOS>ATOM
      1  N          8.0440  139.2340   -2.7500 N.3    33  GLY33      -0.1225
      2  CA         8.1220  139.9950   -1.5090 C.3    33  GLY33       0.1811
      3  C          9.2490  139.5890   -0.5770 C.2    33  GLY33       0.2280
      4  O          9.0530  139.4970    0.6270 O.2    33  GLY33      -0.2866
      5  N          5.5360  132.3340   11.1270 N.3    96  GLY96      -0.1210
      6  CA         5.5490  133.6180   10.4700 C.3    96  GLY96       0.1956
      7  C          4.3490  134.4830   10.7760 C.2    96  GLY96       0.2612
      8  O          3.3800  134.0610   11.3880 O.2    96  GLY96      -0.2717
      9  N          4.3960  135.7260   10.3490 N.am   97  GLY97      -0.1942
     10  CA         3.2280  136.5660   10.5120 C.3    97  GLY97       0.2014
     11  C          1.9680  135.9700    9.8870 C.2    97  GLY97       0.2638
     12  O          0.8710  136.2260   10.3910 O.2    97  GLY97      -0.2714
     13  N          2.1290  135.1880    8.8030 N.am   98  TYR98      -0.1973
     14  CA         1.0410  134.4350    8.1440 C.3    98  TYR98       0.1639
     15  C          0.3260  133.4880    9.1280 C.2    98  TYR98       0.2290
     16  O         -0.9230  133.5120    9.2550 O.2    98  TYR98      -0.2864
     17  CB         1.5850  133.6310    6.9300 C.3    98  TYR98       0.0560
     18  CG         0.6210  133.5090    5.7770 C.ar   98  TYR98      -0.0198
     19  CD1        0.7090  134.3420    4.6320 C.ar   98  TYR98      -0.0009
     20  CD2       -0.3980  132.5520    5.8200 C.ar   98  TYR98      -0.0009
     21  CE1       -0.2150  134.2050    3.5610 C.ar   98  TYR98       0.0417
     22  CE2       -1.3050  132.4080    4.7800 C.ar   98  TYR98       0.0417
     23  CZ        -1.2180  133.2230    3.6640 C.ar   98  TYR98       0.1957
     24  OH        -2.1800  132.9920    2.6810 O.3    98  TYR98      -0.2866
     25  N         -1.6920  135.6600   11.7770 N.3   101  LEU101     -0.1245
     26  CA        -2.9750  136.0580   11.2320 C.3   101  LEU101      0.1561
     27  C         -3.9310  134.9090   11.3120 C.2   101  LEU101      0.2260
     28  O         -5.0870  135.0780   11.7540 O.2   101  LEU101     -0.2867
     29  CB        -2.8120  136.4590    9.7710 C.3   101  LEU101      0.0270
     30  CG        -2.0670  137.8040    9.6770 C.3   101  LEU101      0.0019
     31  CD1       -1.4640  137.9920    8.3250 C.3   101  LEU101      0.0001
     32  CD2       -3.0020  139.0090    9.9910 C.3   101  LEU101      0.0001
     33  N         -3.4200  142.9790    1.7640 N.3   122  PHE122     -0.1241
     34  CA        -2.7080  141.7120    1.6730 C.3   122  PHE122      0.1605
     35  C         -3.7290  140.6000    1.4710 C.2   122  PHE122      0.2264
     36  O         -4.7050  140.4930    2.2360 O.2   122  PHE122     -0.2867
     37  CB        -1.9670  141.4590    2.9570 C.3   122  PHE122      0.0534
     38  CG        -1.1010  140.2670    2.9090 C.ar  122  PHE122     -0.0203
     39  CD1       -0.1560  140.1170    1.8910 C.ar  122  PHE122     -0.0042
     40  CD2       -1.2110  139.2830    3.8670 C.ar  122  PHE122     -0.0042
     41  CE1        0.6630  138.9960    1.8410 C.ar  122  PHE122     -0.0003
     42  CE2       -0.4250  138.1710    3.8480 C.ar  122  PHE122     -0.0003
     43  CZ         0.5180  138.0130    2.8410 C.ar  122  PHE122     -0.0000
     44  N         -6.1610  138.2740    3.8720 N.3   125  TYR125     -0.1241
     45  CA        -7.1400  138.6640    4.8860 C.3   125  TYR125      0.1605
     46  C         -8.4920  138.1200    4.5120 C.2   125  TYR125      0.2264
     47  O         -9.2480  137.6650    5.3910 O.2   125  TYR125     -0.2867
     48  CB        -7.2200  140.1760    5.0830 C.3   125  TYR125      0.0534
     49  CG        -5.8840  140.7480    5.4620 C.ar  125  TYR125     -0.0201
     50  CD1       -4.9040  139.9400    6.0470 C.ar  125  TYR125     -0.0009
     51  CD2       -5.6000  142.0800    5.2400 C.ar  125  TYR125     -0.0009
     52  CE1       -3.6750  140.4440    6.4010 C.ar  125  TYR125      0.0417
     53  CE2       -4.3850  142.6050    5.5820 C.ar  125  TYR125      0.0417
     54  CZ        -3.4170  141.7890    6.1650 C.ar  125  TYR125      0.1957
     55  OH        -2.2030  142.3290    6.5040 O.3   125  TYR125     -0.2866
     56  N         -3.2140  147.0710    8.4430 N.3   175  ASN175     -0.1240
     57  CA        -1.9000  146.6140    8.0170 C.3   175  ASN175      0.1653
     58  C         -1.0140  147.8220    7.7780 C.2   175  ASN175      0.2266
     59  O         -1.2380  148.5610    6.8170 O.2   175  ASN175     -0.2867
     60  CB        -2.0400  145.7540    6.7600 C.3   175  ASN175      0.1155
     61  CG        -0.6870  145.4500    6.0780 C.2   175  ASN175      0.2627
     62  OD1       -0.6140  145.4210    4.8300 O.2   175  ASN175     -0.2716
     63  ND2        0.3940  145.2210    6.8860 N.am  175  ASN175     -0.0877
     64  N          0.9850  146.6630    2.7090 N.3   179  ASN179     -0.1240
     65  CA         1.2290  145.8570    1.4900 C.3   179  ASN179      0.1653
     66  C         -0.0880  145.8450    0.7190 C.2   179  ASN179      0.2266
     67  O         -1.1200  145.4320    1.2970 O.2   179  ASN179     -0.2867
     68  CB         1.5320  144.4210    1.9440 C.3   179  ASN179      0.1155
     69  CG         2.0930  143.5130    0.8440 C.2   179  ASN179      0.2627
     70  OD1        2.0020  143.8090   -0.3540 O.2   179  ASN179     -0.2716
     71  ND2        2.6880  142.3800    1.2710 N.am  179  ASN179     -0.0877
     72  N         -1.4440  144.0180   11.4060 N.3   207  ASP207     -0.1239
     73  CA        -0.3280  143.3570   10.7830 C.3   207  ASP207      0.1674
     74  C          0.8120  144.3590   10.6180 C.2   207  ASP207      0.2266
     75  O          0.7880  145.1830    9.6890 O.2   207  ASP207     -0.2867
     76  CB        -0.8340  142.8620    9.4420 C.3   207  ASP207      0.1410
     77  CG         0.2210  142.1620    8.6030 C.2   207  ASP207      0.3668
     78  OD1        1.4620  142.3220    8.8070 O.co2 207  ASP207     -0.2456
     79  OD2       -0.1430  141.4080    7.6880 O.co2 207  ASP207     -0.2456
     80  N          4.1410  143.5930   10.1500 N.3   209  VAL209     -0.1231
     81  CA         5.3440  142.9450    9.6120 C.3   209  VAL209      0.1692
     82  C          6.3270  143.9560    9.0080 C.2   209  VAL209      0.2592
     83  O          7.5370  143.7220    9.0370 O.2   209  VAL209     -0.2718
     84  CB         5.0600  141.7860    8.6160 C.3   209  VAL209      0.0266
     85  CG1        4.1910  140.7660    9.2310 C.3   209  VAL209      0.0020
     86  CG2        4.4880  142.3010    7.2770 C.3   209  VAL209      0.0020
     87  N          5.8500  145.0680    8.4630 N.am  210  TYR210     -0.1976
     88  CA         6.8370  146.0070    7.8680 C.3   210  TYR210      0.1639
     89  C          7.3580  147.0920    8.7830 C.2   210  TYR210      0.2290
     90  O          8.0880  147.9750    8.3120 O.2   210  TYR210     -0.2864
     91  CB         6.4360  146.5750    6.4820 C.3   210  TYR210      0.0560
     92  CG         6.2730  145.4620    5.5190 C.ar  210  TYR210     -0.0198
     93  CD1        7.3880  144.8580    4.9630 C.ar  210  TYR210     -0.0009
     94  CD2        4.9930  145.0040    5.1580 C.ar  210  TYR210     -0.0009
     95  CE1        7.2510  143.8010    4.0500 C.ar  210  TYR210      0.0417
     96  CE2        4.8380  143.9610    4.2580 C.ar  210  TYR210      0.0417
     97  CZ         5.9810  143.3510    3.6960 C.ar  210  TYR210      0.1957
     98  OH         5.8810  142.3020    2.7890 O.3   210  TYR210     -0.2866
     99  N          6.9030  139.7660   12.0710 N.3   238  SER238     -0.1217
    100  CA         7.5570  138.7200   11.3290 C.3   238  SER238      0.1889
    101  C          9.0640  138.8880   11.3490 C.2   238  SER238      0.2288
    102  O          9.6010  139.9630   10.9660 O.2   238  SER238     -0.2866
    103  CB         7.0330  138.7470    9.9100 C.3   238  SER238      0.2089
    104  OG         7.9750  138.2630    8.9820 O.3   238  SER238     -0.2183
    105  N         11.0670  137.4730    9.3500 N.3   240  GLY240     -0.1210
    106  CA        11.5010  137.5220    7.9840 C.3   240  GLY240      0.1956
    107  C         11.5880  138.9030    7.4130 C.2   240  GLY240      0.2611
    108  O         12.5870  139.1880    6.8040 O.2   240  GLY240     -0.2717
    109  N         10.5760  139.7470    7.5990 N.am  241  LYS241     -0.1976
    110  CA        10.6530  141.1200    7.0920 C.3   241  LYS241      0.1639
    111  C         11.5460  141.9660    8.0290 C.2   241  LYS241      0.2290
    112  O         12.0810  142.9970    7.6360 O.2   241  LYS241     -0.2864
    113  CB         9.2430  141.7480    6.9450 C.3   241  LYS241      0.0554
    114  CG         8.1490  140.8720    6.1900 C.2   241  LYS241     -0.0270
    115  CD         8.5010  140.4850    4.6760 C.2   241  LYS241     -0.0102
    116  CE         7.5410  139.4020    3.9630 C.3   241  LYS241      0.1350
    117  NZ         6.0770  139.0400    4.5280 N.3   241  LYS241     -0.1262
    118  N         13.0990  135.6470    4.9930 N.3   246  THR246     -0.1218
    119  CA        11.6990  135.2620    4.8670 C.3   246  THR246      0.1862
    120  C         11.4930  133.7580    4.9930 C.2   246  THR246      0.2287
    121  O         10.4420  133.3220    5.4260 O.2   246  THR246     -0.2866
    122  CB        11.1200  135.7360    3.5220 C.3   246  THR246      0.1770
    123  OG1       11.9090  135.1880    2.4560 O.3   246  THR246     -0.2211
    124  CG2       11.2160  137.2380    3.3730 C.3   246  THR246      0.0375
    125  N         10.4480  131.9950    8.5320 N.3   249  LYS249     -0.1231
    126  CA         9.0280  131.8120    8.8900 C.3   249  LYS249      0.1693
    127  C          8.9010  131.6870   10.3920 C.2   249  LYS249      0.2591
    128  O          8.4380  130.6450   10.9100 O.2   249  LYS249     -0.2718
    129  CB         8.3740  130.5710    8.2480 C.3   249  LYS249      0.0285
    130  CG         7.9350  130.7170    6.7810 C.3   249  LYS249      0.0035
    131  CD         6.9990  131.8580    6.5500 C.3   249  LYS249      0.0206
    132  CE         5.5970  131.5040    6.9730 C.3   249  LYS249      0.1093
    133  NZ         4.7260  132.3620    6.1850 N.3   249  LYS249     -0.1314
    134  N          9.3160  132.7570   11.0790 N.am  250  VAL250     -0.1980
    135  CA         9.0100  132.9680   12.4890 C.3   250  VAL250      0.1595
    136  C          8.2350  134.2750   12.5220 C.2   250  VAL250      0.2287
    137  O          8.5860  135.2220   11.8030 O.2   250  VAL250     -0.2864
    138  CB        10.2960  133.0130   13.3910 C.3   250  VAL250      0.0276
    139  CG1        9.9100  133.0460   14.7850 C.3   250  VAL250      0.0022
    140  CG2       11.1190  131.7740   13.2070 C.3   250  VAL250      0.0022
@<TRIPOS>BOND
     1     1     2    1
     2     2     3    1
     3     3     4    2
     4    70    69    2
     5    66    67    2
     6    66    65    1
     7    69    71   am
     8    69    68    1
     9    35    34    1
    10    35    36    2
    11    65    68    1
    12    65    64    1
    13    34    33    1
    14    34    37    1
    15    41    39   ar
    16    41    43   ar
    17    39    38   ar
    18   123   122    1
    19    24    23    1
    20    98    97    1
    21    43    42   ar
    22    38    37    1
    23    38    40   ar
    24   124   122    1
    25   122   119    1
    26    21    23   ar
    27    21    19   ar
    28    23    22   ar
    29    97    95   ar
    30    97    96   ar
    31    42    40   ar
    32    44    45    1
    33   116   117    1
    34   116   115    1
    35    95    93   ar
    36    96    94   ar
    37    46    45    1
    38    46    47    2
    39    19    18   ar
    40   115   114    2
    41    22    20   ar
    42    62    61    2
    43   119   120    1
    44   119   118    1
    45    45    48    1
    46    93    92   ar
    47   120   121    2
    48    48    49    1
    49    94    92   ar
    50    51    49   ar
    51    51    53   ar
    52    49    50   ar
    53    92    91    1
    54    53    54   ar
    55    18    20   ar
    56    18    17    1
    57    50    52   ar
    58    61    60    1
    59    61    63   am
    60    54    52   ar
    61    54    55    1
    62   133   132    1
    63   114   113    1
    64    91    88    1
    65   131   130    1
    66   131   132    1
    67    60    57    1
    68   130   129    1
    69   108   107    2
    70    59    58    2
    71    17    14    1
    72   113   110    1
    73   110   109    1
    74   110   111    1
    75    86    84    1
    76   107   109   am
    77   107   106    1
    78   112   111    2
    79    79    77   ar
    80    58    57    1
    81    88    87    1
    82    88    89    1
    83   106   105    1
    84    57    56    1
    85    14    13    1
    86    14    15    1
    87   129   126    1
    88    90    89    2
    89    31    30    1
    90    87    82   am
    91   125   126    1
    92    77    78   ar
    93    77    76    1
    94    84    85    1
    95    84    81    1
    96    13    11   am
    97   126   127    1
    98   104   103    1
    99    82    83    2
   100    82    81    1
   101    15    16    2
   102    76    73    1
   103    81    80    1
   104    30    29    1
   105    30    32    1
   106    75    74    2
   107    29    26    1
   108    11    12    2
   109    11    10    1
   110   103   100    1
   111     9    10    1
   112     9     7   am
   113   127   128    2
   114   127   134   am
   115     6     7    1
   116     6     5    1
   117    74    73    1
   118     7     8    2
   119    73    72    1
   120   102   101    2
   121   134   135    1
   122    26    27    1
   123    26    25    1
   124    27    28    2
   125   100   101    1
   126   100    99    1
   127   137   136    2
   128   135   136    1
   129   135   138    1
   130   140   138    1
   131   138   139    1
