@<TRIPOS>MOLECULE
tmp/1w7oA00.pdb
 198 193 0 0 0
SMALL
GASTEIGER

@<TRIPOS>ATOM
      1  N          2.6850   27.0130   -9.9120 N.3     1  ALA1       -0.1231
      2  CA         2.2470   26.7980   -8.4960 C.3     1  ALA1        0.1694
      3  C          3.1930   27.4230   -7.4800 C.2     1  ALA1        0.2592
      4  O          4.3560   27.7180   -7.7850 O.2     1  ALA1       -0.2718
      5  CB         2.0860   25.3150   -8.1840 C.3     1  ALA1        0.0304
      6  N          2.6700   27.5720   -6.2600 N.am    2  ASP2       -0.1960
      7  CA         3.4140   28.1190   -5.1150 C.3     2  ASP2        0.1840
      8  C          3.7100   26.9700   -4.1880 C.2     2  ASP2        0.2622
      9  O          2.9390   26.0380   -4.1090 O.2     2  ASP2       -0.2715
     10  CB         2.5520   29.1080   -4.3640 C.3     2  ASP2        0.1450
     11  CG         2.3030   30.3750   -5.1470 C.2     2  ASP2        0.3671
     12  OD1        3.0820   30.6490   -6.0750 O.co2   2  ASP2       -0.2456
     13  OD2        1.3620   31.1550   -4.8750 O.co2   2  ASP2       -0.2456
     14  N          4.8140   27.0470   -3.4650 N.am    3  ALA3       -0.1964
     15  CA         5.1160   26.0370   -2.4750 C.3     3  ALA3        0.1713
     16  C          4.1750   26.1660   -1.2890 C.2     3  ALA3        0.2458
     17  O          3.8850   27.2980   -0.8740 O.2     3  ALA3       -0.2730
     18  CB         6.5400   26.1340   -2.0190 C.3     3  ALA3        0.0333
     19  N          3.7230   25.0400   -0.7330 N.am    4  PRO4       -0.2727
     20  CA         2.9300   25.0400    0.4840 C.3     4  PRO4        0.1402
     21  C          3.7180   25.5490    1.6860 C.2     4  PRO4        0.2269
     22  O          4.8930   25.6130    1.6600 O.2     4  PRO4       -0.2865
     23  CB         2.5760   23.5610    0.6950 C.3     4  PRO4        0.0296
     24  CG         3.4770   22.8170   -0.1200 C.3     4  PRO4        0.0237
     25  CD         3.9040   23.6670   -1.2350 C.3     4  PRO4        0.0939
     26  N          3.1300   21.5660    6.1690 N.3     8  TYR8       -0.1241
     27  CA         2.9500   20.4540    5.2720 C.3     8  TYR8        0.1605
     28  C          3.5710   19.1880    5.8060 C.2     8  TYR8        0.2264
     29  O          4.6890   19.2000    6.3190 O.2     8  TYR8       -0.2867
     30  CB         3.5620   20.7980    3.9030 C.3     8  TYR8        0.0534
     31  CG         3.1970   19.8330    2.7740 C.ar    8  TYR8       -0.0201
     32  CD1        3.9790   18.7530    2.4840 C.ar    8  TYR8       -0.0009
     33  CD2        2.0880   20.0620    1.9490 C.ar    8  TYR8       -0.0009
     34  CE1        3.6480   17.8500    1.4650 C.ar    8  TYR8        0.0417
     35  CE2        1.7790   19.1920    0.9210 C.ar    8  TYR8        0.0417
     36  CZ         2.5900   18.0940    0.6760 C.ar    8  TYR8        0.1957
     37  OH         2.2930   17.2080   -0.3450 O.3     8  TYR8       -0.2866
     38  N          4.1680   15.0280    4.7400 N.3    10  ILE10      -0.1231
     39  CA         4.1280   13.9550    3.7850 C.3    10  ILE10       0.1692
     40  C          3.7000   12.6610    4.4330 C.2    10  ILE10       0.2592
     41  O          4.3110   12.2210    5.3860 O.2    10  ILE10      -0.2718
     42  CB         5.4960   13.7310    3.1240 C.3    10  ILE10       0.0266
     43  CG1        6.1010   15.0700    2.5420 C.3    10  ILE10       0.0019
     44  CG2        5.4100   12.5940    2.0880 C.3    10  ILE10       0.0020
     45  CD1        7.5640   14.9310    2.1810 C.3    10  ILE10       0.0001
     46  N          2.6900   12.0290    3.8720 N.am   11  SER11      -0.1952
     47  CA         2.2650   10.6900    4.3810 C.3    11  SER11       0.1924
     48  C          2.2970    9.6850    3.2590 C.2    11  SER11       0.2314
     49  O          2.3380   10.0380    2.0910 O.2    11  SER11      -0.2863
     50  CB         0.8640   10.7850    5.0090 C.3    11  SER11       0.2116
     51  OG        -0.0230   11.3720    4.0800 O.3    11  SER11      -0.2180
     52  N          7.5630   18.3380    6.2850 N.3    34  PHE34      -0.1241
     53  CA         8.4620   18.8080    5.2570 C.3    34  PHE34       0.1605
     54  C          8.2370   20.3250    5.0690 C.2    34  PHE34       0.2264
     55  O          7.2530   20.7290    4.4590 O.2    34  PHE34      -0.2867
     56  CB         8.2310   18.0600    3.9830 C.3    34  PHE34       0.0534
     57  CG         9.0890   18.5450    2.8250 C.ar   34  PHE34      -0.0203
     58  CD1        8.5370   19.2720    1.7880 C.ar   34  PHE34      -0.0042
     59  CD2       10.4750   18.4010    2.8850 C.ar   34  PHE34      -0.0042
     60  CE1        9.3380   19.7560    0.7900 C.ar   34  PHE34      -0.0003
     61  CE2       11.2770   18.8360    1.8540 C.ar   34  PHE34      -0.0003
     62  CZ        10.7320   19.5350    0.8240 C.ar   34  PHE34      -0.0000
     63  N          9.0470   23.4270    3.1020 N.3    36  HIS36      -0.1241
     64  CA         9.6120   23.9840    1.8790 C.3    36  HIS36       0.1621
     65  C         10.5470   25.1700    2.1000 C.2    36  HIS36       0.2264
     66  O         11.5340   25.3460    1.3660 O.2    36  HIS36      -0.2867
     67  CB         8.4950   24.3920    0.8720 C.3    36  HIS36       0.0745
     68  CG         7.9980   23.2710    0.0160 C.ar   36  HIS36       0.0817
     69  ND1        7.0290   22.3880    0.4430 N.ar   36  HIS36      -0.2268
     70  CD2        8.3870   22.8450   -1.2190 C.ar   36  HIS36       0.1154
     71  CE1        6.8270   21.4810   -0.4990 C.ar   36  HIS36       0.1986
     72  NE2        7.6080   21.7710   -1.5360 N.ar   36  HIS36      -0.2212
     73  N         14.1570   24.5120    2.2350 N.3    39  HIS39      -0.1226
     74  CA        14.7140   23.9930    1.0230 C.3    39  HIS39       0.1752
     75  C         14.6260   25.0440   -0.0720 C.2    39  HIS39       0.2595
     76  O         14.6310   24.7140   -1.2790 O.2    39  HIS39      -0.2718
     77  CB        13.9860   22.7180    0.6000 C.3    39  HIS39       0.0759
     78  CG        14.0870   21.6270    1.6420 C.ar   39  HIS39       0.0818
     79  ND1       13.2770   21.6100    2.7590 N.ar   39  HIS39      -0.2268
     80  CD2       15.0210   20.6710    1.8390 C.ar   39  HIS39       0.1154
     81  CE1       13.6850   20.6410    3.5660 C.ar   39  HIS39       0.1986
     82  NE2       14.7260   20.0420    3.0170 N.ar   39  HIS39      -0.2212
     83  N         14.6710   26.2970    0.3250 N.am   40  ALA40      -0.1980
     84  CA        14.3680   27.3480   -0.6220 C.3    40  ALA40       0.1597
     85  C         15.5610   27.5590   -1.5530 C.2    40  ALA40       0.2287
     86  O         15.3800   28.1300   -2.6720 O.2    40  ALA40      -0.2864
     87  CB        13.9530   28.6330    0.0880 C.3    40  ALA40       0.0319
     88  N         17.0600   25.0690   -3.0120 N.3    42  VAL42      -0.1231
     89  CA        17.0740   23.9840   -3.9410 C.3    42  VAL42       0.1692
     90  C         16.0430   24.3300   -5.0050 C.2    42  VAL42       0.2592
     91  O         14.9560   24.7060   -4.6680 O.2    42  VAL42      -0.2718
     92  CB        16.7720   22.6510   -3.2080 C.3    42  VAL42       0.0266
     93  CG1       16.6360   21.4860   -4.1630 C.3    42  VAL42       0.0020
     94  CG2       17.8530   22.3270   -2.1340 C.3    42  VAL42       0.0020
     95  N         16.3780   24.2310   -6.2950 N.am   43  GLU43      -0.1966
     96  CA        15.3870   24.5380   -7.3320 C.3    43  GLU43       0.1733
     97  C         14.1910   23.6070   -7.2080 C.2    43  GLU43       0.2616
     98  O         14.3410   22.4230   -6.9040 O.2    43  GLU43      -0.2715
     99  CB        16.0010   24.3100   -8.6780 C.3    43  GLU43       0.0429
    100  CG        17.0110   25.3710   -9.0770 C.3    43  GLU43       0.1163
    101  CD        16.3460   26.6680   -9.4280 C.2    43  GLU43       0.3649
    102  OE1       16.9470   27.6710   -9.1230 O.co2  43  GLU43      -0.2457
    103  OE2       15.2400   26.6690  -10.0150 O.co2  43  GLU43      -0.2457
    104  N         13.0020   24.1130   -7.5160 N.am   44  CYS44      -0.1968
    105  CA        11.8030   23.2960   -7.4330 C.3    44  CYS44       0.1712
    106  C         11.9500   22.0470   -8.2640 C.2    44  CYS44       0.2296
    107  O         11.5570   20.9780   -7.8290 O.2    44  CYS44      -0.2864
    108  CB        10.5800   24.0010   -7.9300 C.3    44  CYS44       0.0983
    109  SG        10.2870   25.6760   -7.3690 S.3    44  CYS44      -0.0798
    110  N         13.6210   18.4970   -7.1490 N.3    47  CYS47      -0.1221
    111  CA        12.8410   17.5230   -6.4440 C.3    47  CYS47       0.1808
    112  C         11.6240   17.1400   -7.2350 C.2    47  CYS47       0.2601
    113  O         11.2930   15.9530   -7.3080 O.2    47  CYS47      -0.2717
    114  CB        12.3630   18.0440   -5.1040 C.3    47  CYS47       0.0970
    115  SG        13.7870   18.4090   -4.0080 S.3    47  CYS47      -0.0800
    116  N         10.9480   18.1260   -7.8020 N.am   48  HIS48      -0.1975
    117  CA         9.7480   17.9350   -8.6140 C.3    48  HIS48       0.1656
    118  C         10.2810   17.7530  -10.0280 C.2    48  HIS48       0.2291
    119  O         10.2020   18.6600  -10.8920 O.2    48  HIS48      -0.2864
    120  CB         8.8300   19.1370   -8.4990 C.3    48  HIS48       0.0771
    121  CG         8.2700   19.3190   -7.1420 C.ar   48  HIS48       0.0820
    122  ND1        7.4280   18.3830   -6.5610 N.ar   48  HIS48      -0.2267
    123  CD2        8.4990   20.2710   -6.1910 C.ar   48  HIS48       0.1154
    124  CE1        7.1070   18.7950   -5.3490 C.ar   48  HIS48       0.1986
    125  NE2        7.7570   19.9170   -5.0790 N.ar   48  HIS48      -0.2212
    126  N          8.6630   18.4070  -13.6170 N.3    51  LEU51      -0.1245
    127  CA         7.9710   19.6660  -13.6950 C.3    51  LEU51       0.1561
    128  C          7.8370   20.1560  -15.1460 C.2    51  LEU51       0.2260
    129  O          6.7600   20.5770  -15.5120 O.2    51  LEU51      -0.2867
    130  CB         8.6800   20.6960  -12.8250 C.3    51  LEU51       0.0270
    131  CG         8.0850   22.0140  -12.5030 C.3    51  LEU51       0.0019
    132  CD1        6.7480   21.8290  -11.7870 C.3    51  LEU51       0.0001
    133  CD2        9.0760   22.8830  -11.6870 C.3    51  LEU51       0.0001
    134  N          2.7010   20.9190  -10.4630 N.3    58  VAL58      -0.1231
    135  CA         3.3620   20.0500   -9.5120 C.3    58  VAL58       0.1692
    136  C          2.4530   18.8790   -9.2230 C.2    58  VAL58       0.2592
    137  O          1.3680   19.0720   -8.6860 O.2    58  VAL58      -0.2718
    138  CB         3.7050   20.7630   -8.2190 C.3    58  VAL58       0.0266
    139  CG1        4.3330   19.7520   -7.2150 C.3    58  VAL58       0.0020
    140  CG2        4.6200   21.8740   -8.4890 C.3    58  VAL58       0.0020
    141  N          2.9100   17.6880   -9.5790 N.am   59  LYS59      -0.1966
    142  CA         2.1090   16.4810   -9.4020 C.3    59  LYS59       0.1728
    143  C          2.6390   15.8160   -8.1490 C.2    59  LYS59       0.2616
    144  O          3.8800   15.8870   -7.8610 O.2    59  LYS59      -0.2715
    145  CB         2.3420   15.5260  -10.5610 C.3    59  LYS59       0.0311
    146  CG         1.6220   15.9130  -11.8250 C.3    59  LYS59       0.0038
    147  CD         1.7080   14.7720  -12.8210 C.3    59  LYS59       0.0206
    148  CE         0.8920   15.1120  -14.0880 C.3    59  LYS59       0.1093
    149  NZ        -0.5440   14.6950  -13.8600 N.3    59  LYS59      -0.1314
    150  N          1.7510   15.1730   -7.3870 N.am   60  LYS60      -0.1963
    151  CA         2.2290   14.3850   -6.2550 C.3    60  LYS60       0.1728
    152  C          3.1350   13.2970   -6.7340 C.2    60  LYS60       0.2616
    153  O          2.9190   12.7230   -7.7910 O.2    60  LYS60      -0.2715
    154  CB         1.0710   13.7770   -5.4760 C.3    60  LYS60       0.0311
    155  CG         0.3300   14.7950   -4.6750 C.3    60  LYS60       0.0038
    156  CD        -0.8340   14.1220   -4.0020 C.3    60  LYS60       0.0206
    157  CE        -0.9340   14.5140   -2.5340 C.3    60  LYS60       0.1093
    158  NZ        -1.9290   15.6130   -2.4370 N.3    60  LYS60      -0.1314
    159  N          4.1330   12.9420   -5.9300 N.am   61  CYS61      -0.1954
    160  CA         5.0890   11.9430   -6.2870 C.3    61  CYS61       0.1843
    161  C          4.4650   10.5960   -6.6110 C.2    61  CYS61       0.2626
    162  O          5.0390    9.8560   -7.3690 O.2    61  CYS61      -0.2714
    163  CB         6.0840   11.6750   -5.1620 C.3    61  CYS61       0.0997
    164  SG         6.8560   13.1620   -4.4660 S.3    61  CYS61      -0.0797
    165  N          3.3440   10.3110   -5.9630 N.am   62  THR62      -0.1950
    166  CA         2.7240    8.9910   -5.9800 C.3    62  THR62       0.1897
    167  C          1.5900    8.8920   -7.0070 C.2    62  THR62       0.2313
    168  O          0.9480    7.8390   -7.0940 O.2    62  THR62      -0.2863
    169  CB         2.2050    8.6210   -4.5890 C.3    62  THR62       0.1794
    170  OG1        1.3350    9.6680   -4.1060 O.3    62  THR62      -0.2208
    171  CG2        3.3200    8.5700   -3.5630 C.3    62  THR62       0.0378
    172  N         11.3000    8.4020   -2.0590 N.3    88  TYR88      -0.1241
    173  CA        11.4890    9.4650   -1.0630 C.3    88  TYR88       0.1605
    174  C         12.8060    9.3170   -0.3760 C.2    88  TYR88       0.2264
    175  O         13.4780   10.3210   -0.1350 O.2    88  TYR88      -0.2867
    176  CB        10.3950    9.4740   -0.0530 C.3    88  TYR88       0.0534
    177  CG         9.0470    9.9610   -0.5630 C.ar   88  TYR88      -0.0201
    178  CD1        8.6730   11.2780   -0.4840 C.ar   88  TYR88      -0.0009
    179  CD2        8.1130    9.0420   -1.0810 C.ar   88  TYR88      -0.0009
    180  CE1        7.4370   11.6900   -0.9040 C.ar   88  TYR88       0.0417
    181  CE2        6.8820    9.4650   -1.5320 C.ar   88  TYR88       0.0417
    182  CZ         6.5330   10.7600   -1.4270 C.ar   88  TYR88       0.1957
    183  OH         5.3030   11.1950   -1.8280 O.3    88  TYR88      -0.2866
    184  N         15.5670   10.6900   -2.6000 N.3    91  GLN91      -0.1231
    185  CA        15.5620   12.1200   -2.6510 C.3    91  GLN91       0.1698
    186  C         16.0120   12.7350   -1.3120 C.2    91  GLN91       0.2592
    187  O         16.8980   13.5700   -1.2670 O.2    91  GLN91      -0.2718
    188  CB        14.2120   12.6260   -3.0590 C.3    91  GLN91       0.0381
    189  CG        14.1170   14.1560   -3.1120 C.3    91  GLN91       0.0905
    190  CD        12.8540   14.6020   -3.7690 C.2    91  GLN91       0.2608
    191  OE1       11.9900   15.1360   -3.0930 O.2    91  GLN91      -0.2717
    192  NE2       12.7770   14.4700   -5.0780 N.am   91  GLN91      -0.0878
    193  N         15.3790   12.3390   -0.2120 N.am   92  CYS92      -0.1970
    194  CA        15.5260   13.0830    1.0370 C.3    92  CYS92       0.1712
    195  C         16.8420   12.7610    1.7820 C.2    92  CYS92       0.2296
    196  O         17.5940   13.6770    2.2040 O.2    92  CYS92      -0.2864
    197  CB        14.3820   12.8190    1.9860 C.3    92  CYS92       0.0983
    198  SG        12.7420   13.0350    1.3410 S.3    92  CYS92      -0.0798
@<TRIPOS>BOND
     1   129   128    2
     2   128   127    1
     3   148   149    1
     4   148   147    1
     5   127   126    1
     6   127   130    1
     7   130   131    1
     8   147   146    1
     9   131   132    1
    10   131   133    1
    11   146   145    1
    12   119   118    2
    13   145   142    1
    14   134   135    1
    15   118   117    1
    16   103   101   ar
    17     1     2    1
    18   141   142    1
    19   141   136   am
    20   135   136    1
    21   135   138    1
    22   101   102   ar
    23   101   100    1
    24   142   143    1
    25   136   137    2
    26   100    99    1
    27    99    96    1
    28   117   120    1
    29   117   116    1
    30   120   121    1
    31     2     5    1
    32     2     3    1
    33   140   138    1
    34   106   107    2
    35   106   105    1
    36   138   139    1
    37   143   144    2
    38   143   150   am
    39   108   105    1
    40   108   109    1
    41   116   112   am
    42   153   152    2
    43     4     3    2
    44   104   105    1
    45   104    97   am
    46     3     6   am
    47   150   151    1
    48   162   161    2
    49    96    97    1
    50    96    95    1
    51   113   112    2
    52   112   111    1
    53    97    98    2
    54   110   111    1
    55   121   122   ar
    56   121   123   ar
    57   168   167    2
    58   167   166    1
    59   152   151    1
    60   152   159   am
    61   161   160    1
    62   161   165   am
    63   122   124   ar
    64   111   114    1
    65    95    90   am
    66   160   159    1
    67   160   163    1
    68     6     7    1
    69   151   154    1
    70   123   125   ar
    71    12    11   ar
    72   166   165    1
    73   166   169    1
    74   154   155    1
    75   124   125   ar
    76   163   164    1
    77    11    13   ar
    78    11    10    1
    79     7    10    1
    80     7     8    1
    81   114   115    1
    82   192   190   am
    83    90    91    2
    84    90    89    1
    85   155   156    1
    86   169   170    1
    87   169   171    1
    88     8     9    2
    89     8    14   am
    90    93    92    1
    91   156   157    1
    92    89    92    1
    93    89    88    1
    94   190   189    1
    95   190   191    2
    96    14    15    1
    97    92    94    1
    98   189   188    1
    99   188   185    1
   100    86    85    2
   101   185   184    1
   102   185   186    1
   103   157   158    1
   104    15    18    1
   105    15    16    1
   106   172   173    1
   107   183   182    1
   108    85    84    1
   109    72    70   ar
   110    72    71   ar
   111   181   182   ar
   112   181   179   ar
   113   182   180   ar
   114   186   187    2
   115   186   193   am
   116    16    17    2
   117    16    19   am
   118    76    75    2
   119    25    19    1
   120    25    24    1
   121    70    68   ar
   122   179   177   ar
   123   173   174    1
   124   173   176    1
   125   180   178   ar
   126    19    20    1
   127    84    87    1
   128    84    83    1
   129   177   178   ar
   130   177   176    1
   131    71    69   ar
   132   174   175    2
   133    37    36    1
   134   193   194    1
   135    24    23    1
   136    75    83   am
   137    75    74    1
   138    68    69   ar
   139    68    67    1
   140    20    23    1
   141    20    21    1
   142    77    74    1
   143    77    78    1
   144    36    35   ar
   145    36    34   ar
   146    60    62   ar
   147    60    58   ar
   148    62    61   ar
   149    67    64    1
   150    35    33   ar
   151    74    73    1
   152   194   195    1
   153   194   197    1
   154   198   197    1
   155    66    65    2
   156    34    32   ar
   157    78    80   ar
   158    78    79   ar
   159    22    21    2
   160   195   196    2
   161    58    57   ar
   162    80    82   ar
   163    61    59   ar
   164    64    65    1
   165    64    63    1
   166    33    31   ar
   167    44    42    1
   168    49    48    2
   169    45    43    1
   170    32    31   ar
   171    43    42    1
   172    79    81   ar
   173    31    30    1
   174    57    59   ar
   175    57    56    1
   176    82    81   ar
   177    42    39    1
   178    48    47    1
   179    39    40    1
   180    39    38    1
   181    46    47    1
   182    46    40   am
   183    30    27    1
   184    56    53    1
   185    51    50    1
   186    47    50    1
   187    40    41    2
   188    55    54    2
   189    54    53    1
   190    53    52    1
   191    27    28    1
   192    27    26    1
   193    28    29    2
