@<TRIPOS>MOLECULE
tmp/1w7oA02.pdb
 179 176 0 0 0
SMALL
GASTEIGER

@<TRIPOS>ATOM
      1  N          4.1680   15.0280    4.7400 N.3    10  ILE10      -0.1245
      2  CA         4.1280   13.9550    3.7850 C.3    10  ILE10       0.1561
      3  C          3.7000   12.6610    4.4330 C.2    10  ILE10       0.2260
      4  O          4.3110   12.2210    5.3860 O.2    10  ILE10      -0.2867
      5  CB         5.4960   13.7310    3.1240 C.3    10  ILE10       0.0252
      6  CG1        6.1010   15.0700    2.5420 C.3    10  ILE10       0.0019
      7  CG2        5.4100   12.5940    2.0880 C.3    10  ILE10       0.0019
      8  CD1        7.5640   14.9310    2.1810 C.3    10  ILE10       0.0001
      9  N          5.9030   12.5180    7.8740 N.3    32  VAL32      -0.1231
     10  CA         7.1000   13.2760    7.7070 C.3    32  VAL32       0.1678
     11  C          6.7970   14.7580    7.4380 C.2    32  VAL32       0.2434
     12  O          6.3960   15.1280    6.3330 O.2    32  VAL32      -0.2733
     13  CB         7.9190   12.7120    6.5640 C.3    32  VAL32       0.0265
     14  CG1        9.1770   13.5480    6.3780 C.3    32  VAL32       0.0020
     15  CG2        8.1830   11.2000    6.8250 C.3    32  VAL32       0.0020
     16  N          6.9550   15.6080    8.4370 N.am   33  PRO33      -0.2718
     17  CA         6.8980   17.0580    8.1940 C.3    33  PRO33       0.1535
     18  C          7.9640   17.4800    7.1860 C.2    33  PRO33       0.2598
     19  O          9.0980   17.0050    7.1850 O.2    33  PRO33      -0.2715
     20  CB         7.1860   17.6810    9.5550 C.3    33  PRO33       0.0310
     21  CG         6.7990   16.6170   10.5190 C.3    33  PRO33       0.0237
     22  CD         7.2110   15.2890    9.8670 C.3    33  PRO33       0.0939
     23  N          7.5630   18.3380    6.2850 N.am   34  PHE34      -0.1961
     24  CA         8.4620   18.8080    5.2570 C.3    34  PHE34       0.1756
     25  C          8.2370   20.3250    5.0690 C.2    34  PHE34       0.2461
     26  O          7.2530   20.7290    4.4590 O.2    34  PHE34      -0.2730
     27  CB         8.2310   18.0600    3.9830 C.3    34  PHE34       0.0574
     28  CG         9.0890   18.5450    2.8250 C.ar   34  PHE34      -0.0200
     29  CD1        8.5370   19.2720    1.7880 C.ar   34  PHE34      -0.0042
     30  CD2       10.4750   18.4010    2.8850 C.ar   34  PHE34      -0.0042
     31  CE1        9.3380   19.7560    0.7900 C.ar   34  PHE34      -0.0003
     32  CE2       11.2770   18.8360    1.8540 C.ar   34  PHE34      -0.0003
     33  CZ        10.7320   19.5350    0.8240 C.ar   34  PHE34      -0.0000
     34  N          9.1870   21.1090    5.5570 N.am   35  PRO35      -0.2727
     35  CA         9.1490   22.5560    5.3960 C.3    35  PRO35       0.1402
     36  C          9.8190   22.9920    4.0920 C.2    35  PRO35       0.2269
     37  O         11.0230   22.9400    4.0350 O.2    35  PRO35      -0.2865
     38  CB         9.9200   23.0480    6.5970 C.3    35  PRO35       0.0296
     39  CG        10.8680   21.9870    6.9260 C.3    35  PRO35       0.0237
     40  CD        10.3420   20.6700    6.4120 C.3    35  PRO35       0.0939
     41  N         12.7770   25.6430    4.2720 N.3    38  LYS38      -0.1231
     42  CA        14.1140   25.1760    4.5730 C.3    38  LYS38       0.1693
     43  C         14.8460   24.5780    3.3760 C.2    38  LYS38       0.2592
     44  O         15.9920   24.2000    3.4930 O.2    38  LYS38      -0.2718
     45  CB        14.0590   24.1360    5.6820 C.3    38  LYS38       0.0285
     46  CG        13.5940   24.8170    6.9670 C.3    38  LYS38       0.0035
     47  CD        14.7050   24.9260    7.9700 C.3    38  LYS38       0.0206
     48  CE        14.0940   24.9760    9.3930 C.3    38  LYS38       0.1093
     49  NZ        14.5030   26.1580   10.1200 N.3    38  LYS38      -0.1314
     50  N         14.1570   24.5120    2.2350 N.am   39  HIS39      -0.1976
     51  CA        14.7140   23.9930    1.0230 C.3    39  HIS39       0.1656
     52  C         14.6260   25.0440   -0.0720 C.2    39  HIS39       0.2291
     53  O         14.6310   24.7140   -1.2790 O.2    39  HIS39      -0.2864
     54  CB        13.9860   22.7180    0.6000 C.3    39  HIS39       0.0771
     55  CG        14.0870   21.6270    1.6420 C.ar   39  HIS39       0.0820
     56  ND1       13.2770   21.6100    2.7590 N.ar   39  HIS39      -0.2267
     57  CD2       15.0210   20.6710    1.8390 C.ar   39  HIS39       0.1154
     58  CE1       13.6850   20.6410    3.5660 C.ar   39  HIS39       0.1986
     59  NE2       14.7260   20.0420    3.0170 N.ar   39  HIS39      -0.2212
     60  N         16.7270   27.0570   -1.1290 N.3    41  THR41      -0.1203
     61  CA        17.9620   27.0500   -1.9220 C.3    41  THR41       0.1994
     62  C         18.0490   25.9420   -2.9870 C.2    41  THR41       0.2617
     63  O         19.0460   25.8370   -3.7520 O.2    41  THR41      -0.2717
     64  CB        19.2000   26.9530   -1.0130 C.3    41  THR41       0.1784
     65  OG1       19.2320   25.6860   -0.3320 O.3    41  THR41      -0.2211
     66  CG2       19.2270   28.0550    0.0860 C.3    41  THR41       0.0376
     67  N         17.0600   25.0690   -3.0120 N.am   42  VAL42      -0.1979
     68  CA        17.0740   23.9840   -3.9410 C.3    42  VAL42       0.1595
     69  C         16.0430   24.3300   -5.0050 C.2    42  VAL42       0.2287
     70  O         14.9560   24.7060   -4.6680 O.2    42  VAL42      -0.2864
     71  CB        16.7720   22.6510   -3.2080 C.3    42  VAL42       0.0276
     72  CG1       16.6360   21.4860   -4.1630 C.3    42  VAL42       0.0022
     73  CG2       17.8530   22.3270   -2.1340 C.3    42  VAL42       0.0022
     74  N         14.4810   20.3600   -9.0530 N.3    46  GLN46      -0.1231
     75  CA        15.3600   19.3290   -8.5600 C.3    46  GLN46       0.1698
     76  C         14.6450   18.1790   -7.9340 C.2    46  GLN46       0.2592
     77  O         15.0380   17.0180   -8.1730 O.2    46  GLN46      -0.2718
     78  CB        16.4840   19.8300   -7.6330 C.3    46  GLN46       0.0381
     79  CG        17.5380   18.7700   -7.2960 C.3    46  GLN46       0.0905
     80  CD        18.7930   19.3040   -6.7090 C.2    46  GLN46       0.2608
     81  OE1       19.2930   20.3840   -7.1390 O.2    46  GLN46      -0.2717
     82  NE2       19.3480   18.5760   -5.7590 N.am   46  GLN46      -0.0878
     83  N         13.6210   18.4970   -7.1490 N.am   47  CYS47      -0.1970
     84  CA        12.8410   17.5230   -6.4440 C.3    47  CYS47       0.1712
     85  C         11.6240   17.1400   -7.2350 C.2    47  CYS47       0.2296
     86  O         11.2930   15.9530   -7.3080 O.2    47  CYS47      -0.2864
     87  CB        12.3630   18.0440   -5.1040 C.3    47  CYS47       0.0983
     88  SG        13.7870   18.4090   -4.0080 S.3    47  CYS47      -0.0798
     89  N         11.3000    8.4020   -2.0590 N.3    88  TYR88      -0.1241
     90  CA        11.4890    9.4650   -1.0630 C.3    88  TYR88       0.1605
     91  C         12.8060    9.3170   -0.3760 C.2    88  TYR88       0.2264
     92  O         13.4780   10.3210   -0.1350 O.2    88  TYR88      -0.2867
     93  CB        10.3950    9.4740   -0.0530 C.3    88  TYR88       0.0534
     94  CG         9.0470    9.9610   -0.5630 C.ar   88  TYR88      -0.0201
     95  CD1        8.6730   11.2780   -0.4840 C.ar   88  TYR88      -0.0009
     96  CD2        8.1130    9.0420   -1.0810 C.ar   88  TYR88      -0.0009
     97  CE1        7.4370   11.6900   -0.9040 C.ar   88  TYR88       0.0417
     98  CE2        6.8820    9.4650   -1.5320 C.ar   88  TYR88       0.0417
     99  CZ         6.5330   10.7600   -1.4270 C.ar   88  TYR88       0.1957
    100  OH         5.3030   11.1950   -1.8280 O.3    88  TYR88      -0.2866
    101  N         15.5670   10.6900   -2.6000 N.3    91  GLN91      -0.1231
    102  CA        15.5620   12.1200   -2.6510 C.3    91  GLN91       0.1698
    103  C         16.0120   12.7350   -1.3120 C.2    91  GLN91       0.2592
    104  O         16.8980   13.5700   -1.2670 O.2    91  GLN91      -0.2718
    105  CB        14.2120   12.6260   -3.0590 C.3    91  GLN91       0.0381
    106  CG        14.1170   14.1560   -3.1120 C.3    91  GLN91       0.0905
    107  CD        12.8540   14.6020   -3.7690 C.2    91  GLN91       0.2608
    108  OE1       11.9900   15.1360   -3.0930 O.2    91  GLN91      -0.2717
    109  NE2       12.7770   14.4700   -5.0780 N.am   91  GLN91      -0.0878
    110  N         15.3790   12.3390   -0.2120 N.am   92  CYS92      -0.1970
    111  CA        15.5260   13.0830    1.0370 C.3    92  CYS92       0.1712
    112  C         16.8420   12.7610    1.7820 C.2    92  CYS92       0.2296
    113  O         17.5940   13.6770    2.2040 O.2    92  CYS92      -0.2864
    114  CB        14.3820   12.8190    1.9860 C.3    92  CYS92       0.0983
    115  SG        12.7420   13.0350    1.3410 S.3    92  CYS92      -0.0798
    116  N         20.6060   13.6720   -0.0460 N.3    95  CYS95      -0.1221
    117  CA        21.1190   14.9730    0.0870 C.3    95  CYS95       0.1808
    118  C         21.5150   15.3140    1.5120 C.2    95  CYS95       0.2601
    119  O         22.5470   15.9890    1.7230 O.2    95  CYS95      -0.2717
    120  CB        20.1150   16.0350   -0.4160 C.3    95  CYS95       0.0970
    121  SG        20.6870   17.6920   -0.1490 S.3    95  CYS95      -0.0800
    122  N         20.6990   14.9740    2.4940 N.am   96  HIS96      -0.1975
    123  CA        21.0460   15.2990    3.8640 C.3    96  HIS96       0.1656
    124  C         22.3790   14.6190    4.2740 C.2    96  HIS96       0.2291
    125  O         23.1760   15.2370    5.0300 O.2    96  HIS96      -0.2864
    126  CB        19.9820   14.9100    4.8790 C.3    96  HIS96       0.0771
    127  CG        18.6950   15.6560    4.7440 C.ar   96  HIS96       0.0820
    128  ND1       17.5650   15.2830    5.4300 N.ar   96  HIS96      -0.2267
    129  CD2       18.3640   16.7650    4.0440 C.ar   96  HIS96       0.1154
    130  CE1       16.5870   16.1180    5.1450 C.ar   96  HIS96       0.1986
    131  NE2       17.0330   17.0160    4.2990 N.ar   96  HIS96      -0.2212
    132  N         25.3890   16.5570    2.4460 N.3    99  LEU99      -0.1245
    133  CA        25.6440   17.7830    3.1640 C.3    99  LEU99       0.1561
    134  C         26.2880   17.5980    4.5370 C.2    99  LEU99       0.2260
    135  O         27.1680   18.3450    4.8900 O.2    99  LEU99      -0.2867
    136  CB        24.3760   18.6200    3.3030 C.3    99  LEU99       0.0270
    137  CG        23.9060   19.1300    1.9420 C.3    99  LEU99       0.0019
    138  CD1       22.5700   19.8330    2.0890 C.3    99  LEU99       0.0001
    139  CD2       24.9810   20.1000    1.2360 C.3    99  LEU99       0.0001
    140  N         25.1290   22.9590    6.9990 N.3   105  PRO105     -0.2102
    141  CA        23.7860   22.8240    7.5610 C.3   105  PRO105      0.1504
    142  C         22.9920   21.7890    6.7510 C.2   105  PRO105      0.2576
    143  O         23.1930   21.6690    5.5470 O.2   105  PRO105     -0.2718
    144  CB        23.1860   24.2180    7.4430 C.3   105  PRO105      0.0282
    145  CG        24.4090   25.1620    7.4860 C.3   105  PRO105      0.0208
    146  CD        25.4620   24.3830    6.7200 C.3   105  PRO105      0.0893
    147  N         22.1660   21.0090    7.4420 N.am  106  THR106     -0.1939
    148  CA        21.4980   19.8770    6.7480 C.3   106  THR106      0.2028
    149  C         20.2790   19.4500    7.5030 C.2   106  THR106      0.2643
    150  O         19.9250   20.0390    8.5270 O.2   106  THR106     -0.2714
    151  CB        22.5040   18.7170    6.5560 C.3   106  THR106      0.1808
    152  OG1       21.9620   17.7190    5.7110 O.3   106  THR106     -0.2208
    153  CG2       22.9140   18.0390    7.9090 C.3   106  THR106      0.0379
    154  N         19.5900   18.4480    6.9840 N.am  107  GLY107     -0.1940
    155  CA        18.3950   17.9800    7.6480 C.3   107  GLY107      0.1998
    156  C         18.6440   16.6010    8.1830 C.2   107  GLY107      0.2480
    157  O         19.7490   16.1070    8.0960 O.2   107  GLY107     -0.2729
    158  N         17.5810   15.9780    8.6820 N.am  108  PRO108     -0.2726
    159  CA        17.6950   14.6980    9.3760 C.3   108  PRO108      0.1402
    160  C         18.1200   13.5130    8.5210 C.2   108  PRO108      0.2269
    161  O         17.7430   13.3800    7.3570 O.2   108  PRO108     -0.2865
    162  CB        16.2980   14.4770    9.9120 C.3   108  PRO108      0.0296
    163  CG        15.4060   15.2980    9.0790 C.3   108  PRO108      0.0237
    164  CD        16.2180   16.5130    8.7650 C.3   108  PRO108      0.0939
    165  N         14.0250   11.0130   13.2910 N.3   113  LYS113     -0.1231
    166  CA        14.1510   12.4660   13.2250 C.3   113  LYS113      0.1693
    167  C         13.4890   13.0110   11.9490 C.2   113  LYS113      0.2592
    168  O         13.2970   14.2100   11.8180 O.2   113  LYS113     -0.2718
    169  CB        15.5730   12.9200   13.3440 C.3   113  LYS113      0.0285
    170  CG        16.1110   12.6970   14.7200 C.3   113  LYS113      0.0035
    171  CD        15.3020   13.5450   15.7130 C.3   113  LYS113      0.0206
    172  CE        14.8220   12.6990   16.9390 C.3   113  LYS113      0.1093
    173  NZ        13.2560   12.6740   17.0480 N.3   113  LYS113     -0.1314
    174  N         13.1240   12.1320   11.0520 N.am  114  CYS114     -0.1970
    175  CA        12.3280   12.4870    9.8890 C.3   114  CYS114      0.1712
    176  C         10.8900   12.0550   10.0320 C.2   114  CYS114      0.2296
    177  O          9.9790   12.8250    9.7330 O.2   114  CYS114     -0.2864
    178  CB        12.9170   11.8100    8.7120 C.3   114  CYS114      0.0983
    179  SG        12.7850   12.7650    7.2390 S.3   114  CYS114     -0.0798
@<TRIPOS>BOND
     1    74    75    1
     2    75    76    1
     3    75    78    1
     4    77    76    2
     5    76    83   am
     6    78    79    1
     7    86    85    2
     8    79    80    1
     9    85    84    1
    10    83    84    1
    11    81    80    2
    12    80    82   am
    13    84    87    1
    14    87    88    1
    15   109   107   am
    16    69    70    2
    17    69    68    1
    18    72    71    1
    19    68    71    1
    20    68    67    1
    21   107   106    1
    22   107   108    2
    23    63    62    2
    24    71    73    1
    25   106   105    1
    26   105   102    1
    27    67    62   am
    28    62    61    1
    29   102   101    1
    30   102   103    1
    31    89    90    1
    32    61    60    1
    33    61    64    1
    34   100    99    1
    35    98    99   ar
    36    98    96   ar
    37    99    97   ar
    38   103   104    2
    39   103   110   am
    40    53    52    2
    41    96    94   ar
    42    90    91    1
    43    90    93    1
    44    64    65    1
    45    64    66    1
    46    97    95   ar
    47    94    95   ar
    48    94    93    1
    49   120   121    1
    50   120   117    1
    51    91    92    2
    52   110   111    1
    53    52    51    1
    54   116   117    1
    55   117   118    1
    56    54    51    1
    57    54    55    1
    58    31    33   ar
    59    31    29   ar
    60    33    32   ar
    61    51    50    1
    62   111   112    1
    63   111   114    1
    64   139   137    1
    65   115   114    1
    66   118   119    2
    67   118   122   am
    68    55    57   ar
    69    55    56   ar
    70   112   113    2
    71    29    28   ar
    72    57    59   ar
    73    32    30   ar
    74   137   138    1
    75   137   136    1
    76     7     5    1
    77     8     6    1
    78    50    43   am
    79   132   133    1
    80   122   123    1
    81     6     5    1
    82    56    58   ar
    83    28    30   ar
    84    28    27    1
    85    59    58   ar
    86     5     2    1
    87   133   136    1
    88   133   134    1
    89    43    44    2
    90    43    42    1
    91     2     3    1
    92     2     1    1
    93   123   124    1
    94   123   126    1
    95    27    24    1
    96    37    36    2
    97   129   131   ar
    98   129   127   ar
    99    36    35    1
   100    41    42    1
   101   124   125    2
   102   131   130   ar
   103     3     4    2
   104    26    25    2
   105   134   135    2
   106    42    45    1
   107   127   126    1
   108   127   128   ar
   109    25    24    1
   110    25    34   am
   111   130   128   ar
   112    24    23    1
   113    35    34    1
   114    35    38    1
   115   143   142    2
   116    34    40    1
   117    45    46    1
   118   152   151    1
   119    23    18   am
   120    12    11    2
   121    14    13    1
   122    40    39    1
   123   151   148    1
   124   151   153    1
   125    13    15    1
   126    13    10    1
   127    38    39    1
   128   146   140    1
   129   146   145    1
   130   148   147    1
   131   148   149    1
   132   142   147   am
   133   142   141    1
   134    46    47    1
   135   154   149   am
   136   154   155    1
   137   140   141    1
   138    19    18    2
   139    18    17    1
   140   179   178    1
   141   161   160    2
   142    11    10    1
   143    11    16   am
   144   144   145    1
   145   144   141    1
   146   149   150    2
   147   155   156    1
   148    10     9    1
   149    47    48    1
   150   157   156    2
   151   156   158   am
   152    17    16    1
   153    17    20    1
   154    16    22    1
   155   160   159    1
   156   158   164    1
   157   158   159    1
   158   178   175    1
   159   164   163    1
   160   163   162    1
   161   159   162    1
   162    48    49    1
   163    20    21    1
   164   177   176    2
   165    22    21    1
   166   175   176    1
   167   175   174    1
   168   174   167   am
   169   168   167    2
   170   167   166    1
   171   166   165    1
   172   166   169    1
   173   169   170    1
   174   170   171    1
   175   171   172    1
   176   172   173    1
