@<TRIPOS>MOLECULE
tmp/1w7oA01.pdb
 140 137 0 0 0
SMALL
GASTEIGER

@<TRIPOS>ATOM
      1  N         13.6210   18.4970   -7.1490 N.3    47  CYS47      -0.1221
      2  CA        12.8410   17.5230   -6.4440 C.3    47  CYS47       0.1808
      3  C         11.6240   17.1400   -7.2350 C.2    47  CYS47       0.2601
      4  O         11.2930   15.9530   -7.3080 O.2    47  CYS47      -0.2717
      5  CB        12.3630   18.0440   -5.1040 C.3    47  CYS47       0.0970
      6  SG        13.7870   18.4090   -4.0080 S.3    47  CYS47      -0.0800
      7  N         10.9480   18.1260   -7.8020 N.am   48  HIS48      -0.1961
      8  CA         9.7480   17.9350   -8.6140 C.3    48  HIS48       0.1787
      9  C         10.2810   17.7530  -10.0280 C.2    48  HIS48       0.2620
     10  O         10.2020   18.6600  -10.8920 O.2    48  HIS48      -0.2715
     11  CB         8.8300   19.1370   -8.4990 C.3    48  HIS48       0.0785
     12  CG         8.2700   19.3190   -7.1420 C.ar   48  HIS48       0.0821
     13  ND1        7.4280   18.3830   -6.5610 N.ar   48  HIS48      -0.2267
     14  CD2        8.4990   20.2710   -6.1910 C.ar   48  HIS48       0.1154
     15  CE1        7.1070   18.7950   -5.3490 C.ar   48  HIS48       0.1986
     16  NE2        7.7570   19.9170   -5.0790 N.ar   48  HIS48      -0.2212
     17  N         10.8640   16.5770  -10.2300 N.am   49  HIS49      -0.1959
     18  CA        11.8530   16.4180  -11.3210 C.3    49  HIS49       0.1787
     19  C         11.1930   16.2330  -12.6830 C.2    49  HIS49       0.2620
     20  O         11.9100   16.2140  -13.6970 O.2    49  HIS49      -0.2715
     21  CB        12.7940   15.2820  -11.0050 C.3    49  HIS49       0.0785
     22  CG        12.1480   13.9560  -11.0190 C.ar   49  HIS49       0.0821
     23  ND1       12.1020   13.1810  -12.1730 N.ar   49  HIS49      -0.2267
     24  CD2       11.5350   13.2400  -10.0590 C.ar   49  HIS49       0.1154
     25  CE1       11.4630   12.0500  -11.8980 C.ar   49  HIS49       0.1986
     26  NE2       11.1170   12.0620  -10.6230 N.ar   49  HIS49      -0.2212
     27  N          9.8700   16.1330  -12.7060 N.am   50  THR50      -0.1951
     28  CA         9.0620   16.0620  -13.9580 C.3    50  THR50       0.1897
     29  C          8.2940   17.3160  -14.2680 C.2    50  THR50       0.2313
     30  O          7.3980   17.3100  -15.1100 O.2    50  THR50      -0.2863
     31  CB         8.0920   14.8670  -13.8690 C.3    50  THR50       0.1794
     32  OG1        7.1320   15.0950  -12.8440 O.3    50  THR50      -0.2208
     33  CG2        8.7770   13.6450  -13.5010 C.3    50  THR50       0.0378
     34  N          8.0110   18.2870  -18.1820 N.3    53  ALA53      -0.1231
     35  CA         7.1420   17.2720  -18.7650 C.3    53  ALA53       0.1694
     36  C          5.6880   17.4090  -18.2840 C.2    53  ALA53       0.2592
     37  O          4.7530   17.2350  -19.0640 O.2    53  ALA53      -0.2718
     38  CB         7.6760   15.9140  -18.4760 C.3    53  ALA53       0.0304
     39  N          5.5030   17.8800  -17.0430 N.am   54  ASP54      -0.1974
     40  CA         4.1840   18.1420  -16.5020 C.3    54  ASP54       0.1709
     41  C          3.6240   19.5090  -16.7680 C.2    54  ASP54       0.2293
     42  O          2.6120   19.9100  -16.1840 O.2    54  ASP54      -0.2864
     43  CB         4.1990   17.8750  -14.9970 C.3    54  ASP54       0.1436
     44  CG         4.3680   16.4190  -14.6660 C.2    54  ASP54       0.3671
     45  OD1        4.7870   16.1220  -13.5090 O.co2  54  ASP54      -0.2456
     46  OD2        4.0980   15.4790  -15.4780 O.co2  54  ASP54      -0.2456
     47  N          2.9100   17.6880   -9.5790 N.3    59  LYS59      -0.1231
     48  CA         2.1090   16.4810   -9.4020 C.3    59  LYS59       0.1693
     49  C          2.6390   15.8160   -8.1490 C.2    59  LYS59       0.2592
     50  O          3.8800   15.8870   -7.8610 O.2    59  LYS59      -0.2718
     51  CB         2.3420   15.5260  -10.5610 C.3    59  LYS59       0.0285
     52  CG         1.6220   15.9130  -11.8250 C.3    59  LYS59       0.0035
     53  CD         1.7080   14.7720  -12.8210 C.3    59  LYS59       0.0206
     54  CE         0.8920   15.1120  -14.0880 C.3    59  LYS59       0.1093
     55  NZ        -0.5440   14.6950  -13.8600 N.3    59  LYS59      -0.1314
     56  N          1.7510   15.1730   -7.3870 N.am   60  LYS60      -0.1966
     57  CA         2.2290   14.3850   -6.2550 C.3    60  LYS60       0.1728
     58  C          3.1350   13.2970   -6.7340 C.2    60  LYS60       0.2616
     59  O          2.9190   12.7230   -7.7910 O.2    60  LYS60      -0.2715
     60  CB         1.0710   13.7770   -5.4760 C.3    60  LYS60       0.0311
     61  CG         0.3300   14.7950   -4.6750 C.3    60  LYS60       0.0038
     62  CD        -0.8340   14.1220   -4.0020 C.3    60  LYS60       0.0206
     63  CE        -0.9340   14.5140   -2.5340 C.3    60  LYS60       0.1093
     64  NZ        -1.9290   15.6130   -2.4370 N.3    60  LYS60      -0.1314
     65  N          4.1330   12.9420   -5.9300 N.am   61  CYS61      -0.1968
     66  CA         5.0890   11.9430   -6.2870 C.3    61  CYS61       0.1712
     67  C          4.4650   10.5960   -6.6110 C.2    61  CYS61       0.2296
     68  O          5.0390    9.8560   -7.3690 O.2    61  CYS61      -0.2864
     69  CB         6.0840   11.6750   -5.1620 C.3    61  CYS61       0.0983
     70  SG         6.8560   13.1620   -4.4660 S.3    61  CYS61      -0.0798
     71  N          1.3050    6.4540  -12.7640 N.3    65  GLY65      -0.1210
     72  CA         2.3500    6.5680  -13.7510 C.3    65  GLY65       0.1956
     73  C          3.7060    7.0090  -13.1760 C.2    65  GLY65       0.2612
     74  O          4.7500    7.0020  -13.8430 O.2    65  GLY65      -0.2717
     75  N          3.6760    7.4160  -11.9200 N.am   66  CYS66      -0.1956
     76  CA         4.9010    7.9510  -11.2930 C.3    66  CYS66       0.1843
     77  C          5.3770    6.9340  -10.2480 C.2    66  CYS66       0.2625
     78  O          5.6720    5.8290  -10.5980 O.2    66  CYS66      -0.2714
     79  CB         4.5800    9.3120  -10.7110 C.3    66  CYS66       0.0997
     80  SG         4.1330   10.5150  -11.9510 S.3    66  CYS66      -0.0797
     81  N          5.4700    7.2900   -8.9680 N.am   67  HIS67      -0.1973
     82  CA         5.9080    6.3570   -7.9380 C.3    67  HIS67       0.1656
     83  C          4.6780    5.7860   -7.2480 C.2    67  HIS67       0.2291
     84  O          4.3630    6.0960   -6.1410 O.2    67  HIS67      -0.2864
     85  CB         6.8930    7.0460   -6.9470 C.3    67  HIS67       0.0771
     86  CG         8.0150    7.6870   -7.6550 C.ar   67  HIS67       0.0820
     87  ND1        9.1190    6.9860   -8.0470 N.ar   67  HIS67      -0.2267
     88  CD2        8.1980    8.9490   -8.0890 C.ar   67  HIS67       0.1154
     89  CE1        9.9410    7.7870   -8.7000 C.ar   67  HIS67       0.1986
     90  NE2        9.3770    8.9790   -8.7740 N.ar   67  HIS67      -0.2212
     91  N         12.2040    1.7530   -8.5920 N.3    81  ILE81      -0.1231
     92  CA        12.0760    3.2030   -8.3860 C.3    81  ILE81       0.1692
     93  C         10.6340    3.6110   -8.1460 C.2    81  ILE81       0.2591
     94  O         10.3570    4.7180   -7.6450 O.2    81  ILE81      -0.2718
     95  CB        12.6290    3.9380   -9.6260 C.3    81  ILE81       0.0266
     96  CG1       11.9750    3.3710  -10.8870 C.3    81  ILE81       0.0019
     97  CG2       14.1130    3.7460   -9.6610 C.3    81  ILE81       0.0020
     98  CD1       12.0800    4.1620  -12.1480 C.3    81  ILE81       0.0001
     99  N          9.7000    2.7400   -8.5370 N.am   82  LYS82      -0.1980
    100  CA         8.2880    3.0320   -8.3800 C.3    82  LYS82       0.1596
    101  C          7.8100    2.9040   -6.9550 C.2    82  LYS82       0.2287
    102  O          6.7300    3.3650   -6.6160 O.2    82  LYS82      -0.2864
    103  CB         7.4520    2.1210   -9.3110 C.3    82  LYS82       0.0298
    104  CG         7.4500    2.5410  -10.7850 C.3    82  LYS82       0.0038
    105  CD         6.0240    2.9840  -11.1690 C.3    82  LYS82       0.0206
    106  CE         5.8910    3.6140  -12.5670 C.3    82  LYS82       0.1093
    107  NZ         5.1010    2.7140  -13.4570 N.3    82  LYS82      -0.1314
    108  N         11.6320    6.1490   -3.6860 N.3    87  ALA87      -0.1231
    109  CA        11.5500    7.4370   -4.3130 C.3    87  ALA87       0.1694
    110  C         11.8960    8.5210   -3.2300 C.2    87  ALA87       0.2592
    111  O         12.7150    9.4470   -3.4620 O.2    87  ALA87      -0.2718
    112  CB        10.2240    7.6280   -4.8480 C.3    87  ALA87       0.0304
    113  N         11.3000    8.4020   -2.0590 N.am   88  TYR88      -0.1976
    114  CA        11.4890    9.4650   -1.0630 C.3    88  TYR88       0.1639
    115  C         12.8060    9.3170   -0.3760 C.2    88  TYR88       0.2290
    116  O         13.4780   10.3210   -0.1350 O.2    88  TYR88      -0.2864
    117  CB        10.3950    9.4740   -0.0530 C.3    88  TYR88       0.0560
    118  CG         9.0470    9.9610   -0.5630 C.ar   88  TYR88      -0.0198
    119  CD1        8.6730   11.2780   -0.4840 C.ar   88  TYR88      -0.0009
    120  CD2        8.1130    9.0420   -1.0810 C.ar   88  TYR88      -0.0009
    121  CE1        7.4370   11.6900   -0.9040 C.ar   88  TYR88       0.0417
    122  CE2        6.8820    9.4650   -1.5320 C.ar   88  TYR88       0.0417
    123  CZ         6.5330   10.7600   -1.4270 C.ar   88  TYR88       0.1957
    124  OH         5.3030   11.1950   -1.8280 O.3    88  TYR88      -0.2866
    125  N         15.6670    8.0830   -1.5300 N.3    90  THR90      -0.1203
    126  CA        16.6850    8.5370   -2.4550 C.3    90  THR90       0.1994
    127  C         16.7190   10.0620   -2.5130 C.2    90  THR90       0.2617
    128  O         17.8010   10.6700   -2.4280 O.2    90  THR90      -0.2717
    129  CB        16.5140    7.8940   -3.8070 C.3    90  THR90       0.1784
    130  OG1       16.4920    6.4750   -3.6410 O.3    90  THR90      -0.2211
    131  CG2       17.6910    8.1770   -4.6630 C.3    90  THR90       0.0376
    132  N         15.5670   10.6900   -2.6000 N.am   91  GLN91      -0.1979
    133  CA        15.5620   12.1200   -2.6510 C.3    91  GLN91       0.1601
    134  C         16.0120   12.7350   -1.3120 C.2    91  GLN91       0.2287
    135  O         16.8980   13.5700   -1.2670 O.2    91  GLN91      -0.2864
    136  CB        14.2120   12.6260   -3.0590 C.3    91  GLN91       0.0394
    137  CG        14.1170   14.1560   -3.1120 C.3    91  GLN91       0.0908
    138  CD        12.8540   14.6020   -3.7690 C.2    91  GLN91       0.2608
    139  OE1       11.9900   15.1360   -3.0930 O.2    91  GLN91      -0.2717
    140  NE2       12.7770   14.4700   -5.0780 N.am   91  GLN91      -0.0878
@<TRIPOS>BOND
     1    37    36    2
     2    35    38    1
     3    35    36    1
     4    35    34    1
     5    36    39   am
     6    39    40    1
     7    41    40    1
     8    41    42    2
     9    40    43    1
    10    46    44   ar
    11    30    29    2
    12    43    44    1
    13    44    45   ar
    14    29    28    1
    15    54    55    1
    16    54    53    1
    17    28    31    1
    18    28    27    1
    19    31    33    1
    20    31    32    1
    21    74    73    2
    22    72    73    1
    23    72    71    1
    24    20    19    2
    25   107   106    1
    26    73    75   am
    27    53    52    1
    28    27    19   am
    29    19    18    1
    30   106   105    1
    31    23    25   ar
    32    23    22   ar
    33    98    96    1
    34    80    79    1
    35    75    76    1
    36    25    26   ar
    37    52    51    1
    38    18    21    1
    39    18    17    1
    40    76    79    1
    41    76    77    1
    42   105   104    1
    43    22    21    1
    44    22    24   ar
    45    10     9    2
    46    96    95    1
    47   104   103    1
    48    26    24   ar
    49    78    77    2
    50    51    48    1
    51    77    81   am
    52    17     9   am
    53     9     8    1
    54    97    95    1
    55    95    92    1
    56    47    48    1
    57    48    49    1
    58   103   100    1
    59    81    82    1
    60    90    89   ar
    61    90    88   ar
    62    89    87   ar
    63     8    11    1
    64     8     7    1
    65    91    92    1
    66    99   100    1
    67    99    93   am
    68    11    12    1
    69    92    93    1
    70   100   101    1
    71    49    50    2
    72    49    56   am
    73    93    94    2
    74    88    86   ar
    75    87    86   ar
    76    82    83    1
    77    82    85    1
    78     7     3   am
    79    59    58    2
    80    86    85    1
    81    56    57    1
    82    68    67    2
    83     4     3    2
    84    83    84    2
    85     3     2    1
    86     1     2    1
    87    12    13   ar
    88    12    14   ar
    89   101   102    2
    90    58    57    1
    91    58    65   am
    92    67    66    1
    93    13    15   ar
    94     2     5    1
    95    66    65    1
    96    66    69    1
    97    57    60    1
    98    14    16   ar
    99    60    61    1
   100    15    16   ar
   101    69    70    1
   102     5     6    1
   103   140   138   am
   104   112   109    1
   105    61    62    1
   106   131   129    1
   107   109   108    1
   108   109   110    1
   109    62    63    1
   110   129   130    1
   111   129   126    1
   112   138   137    1
   113   138   139    2
   114   111   110    2
   115   110   113   am
   116   137   136    1
   117   136   133    1
   118   133   132    1
   119   133   134    1
   120   132   127   am
   121    63    64    1
   122   127   126    1
   123   127   128    2
   124   126   125    1
   125   113   114    1
   126   124   123    1
   127   122   123   ar
   128   122   120   ar
   129   123   121   ar
   130   134   135    2
   131   120   118   ar
   132   114   115    1
   133   114   117    1
   134   121   119   ar
   135   118   119   ar
   136   118   117    1
   137   115   116    2
