@<TRIPOS>MOLECULE
tmp/1w7oA03.pdb
 189 185 0 0 0
SMALL
GASTEIGER

@<TRIPOS>ATOM
      1  N          4.1680   15.0280    4.7400 N.3    10  ILE10      -0.1231
      2  CA         4.1280   13.9550    3.7850 C.3    10  ILE10       0.1692
      3  C          3.7000   12.6610    4.4330 C.2    10  ILE10       0.2593
      4  O          4.3110   12.2210    5.3860 O.2    10  ILE10      -0.2718
      5  CB         5.4960   13.7310    3.1240 C.3    10  ILE10       0.0266
      6  CG1        6.1010   15.0700    2.5420 C.3    10  ILE10       0.0019
      7  CG2        5.4100   12.5940    2.0880 C.3    10  ILE10       0.0020
      8  CD1        7.5640   14.9310    2.1810 C.3    10  ILE10       0.0001
      9  N          2.6900   12.0290    3.8720 N.am   11  SER11      -0.1938
     10  CA         2.2650   10.6900    4.3810 C.3    11  SER11       0.2055
     11  C          2.2970    9.6850    3.2590 C.2    11  SER11       0.2642
     12  O          2.3380   10.0380    2.0910 O.2    11  SER11      -0.2714
     13  CB         0.8640   10.7850    5.0090 C.3    11  SER11       0.2130
     14  OG        -0.0230   11.3720    4.0800 O.3    11  SER11      -0.2179
     15  N          2.2510    8.4090    3.6210 N.am   12  ALA12      -0.1977
     16  CA         2.2000    7.3100    2.7070 C.3    12  ALA12       0.1597
     17  C          0.8680    7.4090    2.0180 C.2    12  ALA12       0.2287
     18  O         -0.0650    7.9390    2.6000 O.2    12  ALA12      -0.2864
     19  CB         2.3170    6.0200    3.4840 C.3    12  ALA12       0.0319
     20  N         -0.9900    1.9390    1.2190 N.3    16  MET16      -0.1230
     21  CA         0.3820    1.5590    1.4370 C.3    16  MET16       0.1702
     22  C          0.5250    0.3270    2.3390 C.2    16  MET16       0.2592
     23  O         -0.0720    0.2390    3.4020 O.2    16  MET16      -0.2718
     24  CB         1.1490    2.7000    2.0800 C.3    16  MET16       0.0401
     25  CG         2.6640    2.4890    2.1320 C.3    16  MET16       0.0596
     26  SD         3.3220    2.5180    0.5120 S.3    16  MET16      -0.1393
     27  CE         4.8200    1.6340    0.8320 C.3    16  MET16       0.0692
     28  N          1.3470   -0.6030    1.8940 N.am   17  LYS17      -0.1966
     29  CA         1.5540   -1.8510    2.6220 C.3    17  LYS17       0.1728
     30  C          2.8120   -1.6610    3.4560 C.2    17  LYS17       0.2616
     31  O          3.7030   -0.9210    3.0760 O.2    17  LYS17      -0.2715
     32  CB         1.7210   -3.0160    1.6440 C.3    17  LYS17       0.0311
     33  CG         0.4460   -3.3260    0.8340 C.3    17  LYS17       0.0038
     34  CD         0.7490   -3.9800   -0.4820 C.3    17  LYS17       0.0206
     35  CE        -0.4990   -4.0950   -1.3900 C.3    17  LYS17       0.1093
     36  NZ        -0.9760   -5.4970   -1.4230 N.3    17  LYS17      -0.1314
     37  N          2.8460   -2.2750    4.6350 N.am   18  ALA18      -0.1977
     38  CA         4.0620   -2.3350    5.4320 C.3    18  ALA18       0.1597
     39  C          4.5240   -3.7700    5.4240 C.2    18  ALA18       0.2287
     40  O          3.6780   -4.7020    5.3570 O.2    18  ALA18      -0.2864
     41  CB         3.7930   -1.8590    6.8480 C.3    18  ALA18       0.0319
     42  N          3.5510   -2.1000   10.6860 N.3    27  ALA27      -0.1231
     43  CA         2.9070   -0.8250   10.8430 C.3    27  ALA27       0.1694
     44  C          3.6330    0.2050    9.9610 C.2    27  ALA27       0.2592
     45  O          4.8220    0.0810    9.6570 O.2    27  ALA27      -0.2718
     46  CB         2.9450   -0.3960   12.2940 C.3    27  ALA27       0.0304
     47  N          2.8830    1.2010    9.5060 N.am   28  LEU28      -0.1966
     48  CA         3.5140    2.2990    8.7790 C.3    28  LEU28       0.1728
     49  C          4.3520    3.1430    9.6980 C.2    28  LEU28       0.2616
     50  O          4.0900    3.2660   10.8860 O.2    28  LEU28      -0.2715
     51  CB         2.4530    3.2010    8.1690 C.3    28  LEU28       0.0311
     52  CG         1.5810    2.6370    7.0750 C.3    28  LEU28       0.0022
     53  CD1        0.6700    3.7690    6.6610 C.3    28  LEU28       0.0001
     54  CD2        2.3960    2.1420    5.9300 C.3    28  LEU28       0.0001
     55  N          5.3260    3.8440    9.1290 N.am   29  GLN29      -0.1963
     56  CA         6.1040    4.7660    9.9140 C.3    29  GLN29       0.1733
     57  C          5.2720    6.0070   10.2170 C.2    29  GLN29       0.2616
     58  O          4.2770    6.2390    9.5230 O.2    29  GLN29      -0.2715
     59  CB         7.3550    5.1940    9.1300 C.3    29  GLN29       0.0408
     60  CG         8.3310    4.1250    8.8050 C.3    29  GLN29       0.0908
     61  CD         8.9390    3.5000   10.0100 C.2    29  GLN29       0.2608
     62  OE1        9.4280    4.2030   10.9240 O.2    29  GLN29      -0.2717
     63  NE2        8.9170    2.1550   10.0350 N.am   29  GLN29      -0.0878
     64  N          5.6800    6.7630   11.2250 N.am   30  LYS30      -0.1963
     65  CA         5.1530    8.0970   11.5160 C.3    30  LYS30       0.1728
     66  C          5.3090    8.9650   10.2350 C.2    30  LYS30       0.2617
     67  O          6.1700    8.6920    9.3990 O.2    30  LYS30      -0.2715
     68  CB         5.8370    8.7530   12.6770 C.3    30  LYS30       0.0311
     69  CG         5.4830    8.1760   14.0810 C.3    30  LYS30       0.0038
     70  CD         6.2580    8.7750   15.2220 C.3    30  LYS30       0.0206
     71  CE         5.7940    8.1630   16.5720 C.3    30  LYS30       0.1093
     72  NZ         6.4420    8.7780   17.7660 N.3    30  LYS30      -0.1314
     73  N          4.4790    9.9820   10.1230 N.am   31  THR31      -0.1937
     74  CA         4.4780   10.8390    8.9220 C.3    31  THR31       0.2028
     75  C          5.6380   11.8470    8.9950 C.2    31  THR31       0.2642
     76  O          6.3210   11.9970   10.0370 O.2    31  THR31      -0.2714
     77  CB         3.0990   11.5120    8.7790 C.3    31  THR31       0.1808
     78  OG1        2.8440   12.2540    9.9510 O.3    31  THR31      -0.2208
     79  CG2        2.0060   10.5160    8.7530 C.3    31  THR31       0.0379
     80  N          5.9030   12.5180    7.8740 N.am   32  VAL32      -0.1977
     81  CA         7.1000   13.2760    7.7070 C.3    32  VAL32       0.1596
     82  C          6.7970   14.7580    7.4380 C.2    32  VAL32       0.2287
     83  O          6.3960   15.1280    6.3330 O.2    32  VAL32      -0.2864
     84  CB         7.9190   12.7120    6.5640 C.3    32  VAL32       0.0276
     85  CG1        9.1770   13.5480    6.3780 C.3    32  VAL32       0.0022
     86  CG2        8.1830   11.2000    6.8250 C.3    32  VAL32       0.0022
     87  N          7.4420    3.6800   -2.9620 N.3    84  VAL84      -0.1231
     88  CA         7.5260    4.9690   -2.2860 C.3    84  VAL84       0.1692
     89  C          8.7390    5.0240   -1.3620 C.2    84  VAL84       0.2591
     90  O          9.3830    6.0570   -1.3100 O.2    84  VAL84      -0.2718
     91  CB         6.1450    5.4210   -1.7700 C.3    84  VAL84       0.0266
     92  CG1        5.0420    4.7180   -2.5450 C.3    84  VAL84       0.0020
     93  CG2        6.0220    5.1350   -0.2820 C.3    84  VAL84       0.0020
     94  N          9.1690    3.9450   -0.7420 N.am   85  GLU85      -0.1979
     95  CA        10.3420    4.0310    0.1050 C.3    85  GLU85       0.1602
     96  C         11.5350    4.4960   -0.6970 C.2    85  GLU85       0.2287
     97  O         12.3320    5.3570   -0.2250 O.2    85  GLU85      -0.2864
     98  CB        10.5710    2.7030    0.8310 C.3    85  GLU85       0.0415
     99  CG        11.5720    2.8060    1.9300 C.3    85  GLU85       0.1163
    100  CD        11.8340    1.4790    2.5720 C.2    85  GLU85       0.3649
    101  OE1       10.8820    0.6820    2.6110 O.co2  85  GLU85      -0.2457
    102  OE2       12.9570    1.2660    2.9680 O.co2  85  GLU85      -0.2457
    103  N         11.3000    8.4020   -2.0590 N.3    88  TYR88      -0.1227
    104  CA        11.4890    9.4650   -1.0630 C.3    88  TYR88       0.1736
    105  C         12.8060    9.3170   -0.3760 C.2    88  TYR88       0.2595
    106  O         13.4780   10.3210   -0.1350 O.2    88  TYR88      -0.2718
    107  CB        10.3950    9.4740   -0.0530 C.3    88  TYR88       0.0548
    108  CG         9.0470    9.9610   -0.5630 C.ar   88  TYR88      -0.0200
    109  CD1        8.6730   11.2780   -0.4840 C.ar   88  TYR88      -0.0009
    110  CD2        8.1130    9.0420   -1.0810 C.ar   88  TYR88      -0.0009
    111  CE1        7.4370   11.6900   -0.9040 C.ar   88  TYR88       0.0417
    112  CE2        6.8820    9.4650   -1.5320 C.ar   88  TYR88       0.0417
    113  CZ         6.5330   10.7600   -1.4270 C.ar   88  TYR88       0.1957
    114  OH         5.3030   11.1950   -1.8280 O.3    88  TYR88      -0.2866
    115  N         13.2290    8.0920   -0.0790 N.am   89  HIS89      -0.1975
    116  CA        14.5210    7.9820    0.6030 C.3    89  HIS89       0.1656
    117  C         15.6930    8.4540   -0.2640 C.2    89  HIS89       0.2291
    118  O         16.5920    9.1760    0.2190 O.2    89  HIS89      -0.2864
    119  CB        14.7460    6.5720    1.1160 C.3    89  HIS89       0.0771
    120  CG        13.9980    6.2610    2.3860 C.ar   89  HIS89       0.0820
    121  ND1       14.0960    5.0390    3.0300 N.ar   89  HIS89      -0.2267
    122  CD2       13.2000    7.0340    3.1590 C.ar   89  HIS89       0.1154
    123  CE1       13.3680    5.0720    4.1370 C.ar   89  HIS89       0.1986
    124  NE2       12.7900    6.2650    4.2230 N.ar   89  HIS89      -0.2212
    125  N         15.3790   12.3390   -0.2120 N.3    92  CYS92      -0.1221
    126  CA        15.5260   13.0830    1.0370 C.3    92  CYS92       0.1808
    127  C         16.8420   12.7610    1.7820 C.2    92  CYS92       0.2601
    128  O         17.5940   13.6770    2.2040 O.2    92  CYS92      -0.2717
    129  CB        14.3820   12.8190    1.9860 C.3    92  CYS92       0.0970
    130  SG        12.7420   13.0350    1.3410 S.3    92  CYS92      -0.0800
    131  N         17.1390   11.4790    1.9090 N.am   93  ILE93      -0.1979
    132  CA        18.2510   11.0870    2.7350 C.3    93  ILE93       0.1595
    133  C         19.5550   11.4120    2.0370 C.2    93  ILE93       0.2287
    134  O         20.4900   11.9060    2.6360 O.2    93  ILE93      -0.2864
    135  CB        18.1970    9.5750    3.1000 C.3    93  ILE93       0.0276
    136  CG1       16.8970    9.2750    3.7960 C.3    93  ILE93       0.0022
    137  CG2       19.4220    9.2140    3.9520 C.3    93  ILE93       0.0022
    138  CD1       16.6720    7.8570    4.2800 C.3    93  ILE93       0.0001
    139  N         20.6990   14.9740    2.4940 N.3    96  HIS96      -0.1241
    140  CA        21.0460   15.2990    3.8640 C.3    96  HIS96       0.1621
    141  C         22.3790   14.6190    4.2740 C.2    96  HIS96       0.2264
    142  O         23.1760   15.2370    5.0300 O.2    96  HIS96      -0.2867
    143  CB        19.9820   14.9100    4.8790 C.3    96  HIS96       0.0745
    144  CG        18.6950   15.6560    4.7440 C.ar   96  HIS96       0.0817
    145  ND1       17.5650   15.2830    5.4300 N.ar   96  HIS96      -0.2268
    146  CD2       18.3640   16.7650    4.0440 C.ar   96  HIS96       0.1154
    147  CE1       16.5870   16.1180    5.1450 C.ar   96  HIS96       0.1986
    148  NE2       17.0330   17.0160    4.2990 N.ar   96  HIS96      -0.2212
    149  N         17.5810   15.9780    8.6820 N.3   108  PRO108     -0.2102
    150  CA        17.6950   14.6980    9.3760 C.3   108  PRO108      0.1504
    151  C         18.1200   13.5130    8.5210 C.2   108  PRO108      0.2576
    152  O         17.7430   13.3800    7.3570 O.2   108  PRO108     -0.2718
    153  CB        16.2980   14.4770    9.9120 C.3   108  PRO108      0.0282
    154  CG        15.4060   15.2980    9.0790 C.3   108  PRO108      0.0208
    155  CD        16.2180   16.5130    8.7650 C.3   108  PRO108      0.0893
    156  N         18.9610   12.6550    9.1000 N.am  109  THR109     -0.1939
    157  CA        19.3390   11.4240    8.4770 C.3   109  THR109      0.2028
    158  C         18.8950   10.1900    9.2890 C.2   109  THR109      0.2642
    159  O         18.9280    9.0900    8.7710 O.2   109  THR109     -0.2714
    160  CB        20.9150   11.3630    8.2980 C.3   109  THR109      0.1808
    161  OG1       21.5290   11.5390    9.5750 O.3   109  THR109     -0.2208
    162  CG2       21.3980   12.5170    7.4980 C.3   109  THR109      0.0379
    163  N         18.4280   10.3830   10.5060 N.am  110  ALA110     -0.1963
    164  CA        18.0350    9.2540   11.3400 C.3   110  ALA110      0.1728
    165  C         16.5100    9.0530   11.1670 C.2   110  ALA110      0.2616
    166  O         15.7700   10.0550   11.0200 O.2   110  ALA110     -0.2715
    167  CB        18.4050    9.5490   12.7730 C.3   110  ALA110      0.0334
    168  N         16.0710    7.7910   11.0730 N.am  111  CYS111     -0.1968
    169  CA        14.6440    7.4230   10.8940 C.3   111  CYS111      0.1712
    170  C         13.6850    8.2630   11.7190 C.2   111  CYS111      0.2296
    171  O         12.7680    8.8680   11.1830 O.2   111  CYS111     -0.2864
    172  CB        14.3710    5.9510   11.1820 C.3   111  CYS111      0.0983
    173  SG        15.6220    4.7950   10.5940 S.3   111  CYS111     -0.0798
    174  N         13.1240   12.1320   11.0520 N.3   114  CYS114     -0.1221
    175  CA        12.3280   12.4870    9.8890 C.3   114  CYS114      0.1808
    176  C         10.8900   12.0550   10.0320 C.2   114  CYS114      0.2601
    177  O          9.9790   12.8250    9.7330 O.2   114  CYS114     -0.2717
    178  CB        12.9170   11.8100    8.7120 C.3   114  CYS114      0.0970
    179  SG        12.7850   12.7650    7.2390 S.3   114  CYS114     -0.0800
    180  N         10.6800   10.8030   10.4190 N.am  115  HIS115     -0.1975
    181  CA         9.3680   10.2160   10.6420 C.3   115  HIS115      0.1656
    182  C          8.9780   10.5710   12.0680 C.2   115  HIS115      0.2291
    183  O          9.3140    9.8530   13.0320 O.2   115  HIS115     -0.2864
    184  CB         9.3950    8.7090   10.4950 C.3   115  HIS115      0.0771
    185  CG         9.6580    8.2320    9.1020 C.ar  115  HIS115      0.0820
    186  ND1        8.6650    8.1520    8.1620 N.ar  115  HIS115     -0.2267
    187  CD2       10.7700    7.7440    8.5200 C.ar  115  HIS115      0.1154
    188  CE1        9.1530    7.6400    7.0530 C.ar  115  HIS115      0.1986
    189  NE2       10.4360    7.4190    7.2340 N.ar  115  HIS115     -0.2212
@<TRIPOS>BOND
     1    87    88    1
     2    92    91    1
     3    88    91    1
     4    88    89    1
     5   103   104    1
     6   114   113    1
     7    91    93    1
     8   112   113   ar
     9   112   110   ar
    10   113   111   ar
    11    36    35    1
    12    35    34    1
    13    89    90    2
    14    89    94   am
    15   110   108   ar
    16   104   105    1
    17   104   107    1
    18   111   109   ar
    19    94    95    1
    20    96    97    2
    21    96    95    1
    22   108   109   ar
    23   108   107    1
    24    34    33    1
    25   105   106    2
    26   105   115   am
    27   117   118    2
    28   117   116    1
    29   125   126    1
    30   115   116    1
    31    95    98    1
    32    26    27    1
    33    26    25    1
    34   116   119    1
    35    98    99    1
    36    33    32    1
    37   126   127    1
    38   126   129    1
    39   119   120    1
    40    20    21    1
    41   130   129    1
    42    21    24    1
    43    21    22    1
    44    32    29    1
    45   127   131   am
    46   127   128    2
    47    28    22   am
    48    28    29    1
    49   131   132    1
    50    99   100    1
    51    17    18    2
    52    17    16    1
    53   133   134    2
    54   133   132    1
    55    24    25    1
    56     7     5    1
    57    12    11    2
    58     8     6    1
    59    22    23    2
    60   120   121   ar
    61   120   122   ar
    62   139   140    1
    63     6     5    1
    64   100   101   ar
    65   100   102   ar
    66    29    30    1
    67    16    19    1
    68    16    15    1
    69   132   135    1
    70   121   123   ar
    71    31    30    2
    72   135   136    1
    73   135   137    1
    74     5     2    1
    75   122   124   ar
    76    11    15   am
    77    11    10    1
    78    30    37   am
    79     2     3    1
    80     2     1    1
    81   136   138    1
    82   140   141    1
    83   140   143    1
    84     9    10    1
    85     9     3   am
    86   146   148   ar
    87   146   144   ar
    88    14    13    1
    89   123   124   ar
    90   141   142    2
    91   148   147   ar
    92    10    13    1
    93     3     4    2
    94    37    38    1
    95   144   143    1
    96   144   145   ar
    97   147   145   ar
    98    40    39    2
    99    39    38    1
   100    38    41    1
   101    54    52    1
   102    83    82    2
   103    85    84    1
   104    84    86    1
   105    84    81    1
   106    53    52    1
   107   188   189   ar
   108   188   186   ar
   109    52    51    1
   110   189   187   ar
   111   179   178    1
   112   152   151    2
   113    82    81    1
   114   162   160    1
   115    81    80    1
   116    80    75   am
   117   186   185   ar
   118    51    48    1
   119   160   157    1
   120   160   161    1
   121   157   156    1
   122   157   158    1
   123   187   185   ar
   124   151   156   am
   125   151   150    1
   126   149   155    1
   127   149   150    1
   128   178   175    1
   129    79    77    1
   130   155   154    1
   131   159   158    2
   132    48    47    1
   133    48    49    1
   134    77    74    1
   135    77    78    1
   136    60    59    1
   137    60    61    1
   138    74    75    1
   139    74    73    1
   140    75    76    2
   141   154   153    1
   142   185   184    1
   143    55    49   am
   144    55    56    1
   145    59    56    1
   146   158   163   am
   147   150   153    1
   148    67    66    2
   149    47    44   am
   150    58    57    2
   151    45    44    2
   152    49    50    2
   153   177   176    2
   154   175   176    1
   155   175   174    1
   156    56    57    1
   157    44    43    1
   158    61    63   am
   159    61    62    2
   160   176   180   am
   161    73    66   am
   162    57    64   am
   163    66    65    1
   164   180   181    1
   165   184   181    1
   166   163   164    1
   167   173   172    1
   168   181   182    1
   169    42    43    1
   170    43    46    1
   171   169   168    1
   172   169   172    1
   173   169   170    1
   174   166   165    2
   175   168   165   am
   176   165   164    1
   177   171   170    2
   178    64    65    1
   179   164   167    1
   180    65    68    1
   181   182   183    2
   182    68    69    1
   183    69    70    1
   184    70    71    1
   185    71    72    1
