@<TRIPOS>MOLECULE
tmp/1w7vB00.pdb
 125 119 0 0 0
SMALL
GASTEIGER

@<TRIPOS>ATOM
      1  N         -1.3840    3.9060   36.3430 N.3   232  ILE232     -0.1245
      2  CA        -0.1490    3.3850   36.9170 C.3   232  ILE232      0.1561
      3  C         -0.3140    3.2470   38.4230 C.2   232  ILE232      0.2260
      4  O         -0.6590    4.2130   39.0850 O.2   232  ILE232     -0.2867
      5  CB         1.0220    4.3560   36.6270 C.3   232  ILE232      0.0252
      6  CG1        1.2720    4.4430   35.1140 C.3   232  ILE232      0.0019
      7  CG2        2.2920    3.9620   37.4070 C.3   232  ILE232      0.0019
      8  CD1        2.0140    5.6940   34.6760 C.3   232  ILE232      0.0001
      9  N          8.6610    4.2400   34.9860 N.3   242  LEU242     -0.1231
     10  CA         7.8450    5.4400   34.7450 C.3   242  LEU242      0.1693
     11  C          6.4170    5.1480   34.2600 C.2   242  LEU242      0.2592
     12  O          5.4550    5.7460   34.7560 O.2   242  LEU242     -0.2718
     13  CB         8.5450    6.3970   33.7620 C.3   242  LEU242      0.0284
     14  CG         9.8590    7.0190   34.2420 C.3   242  LEU242      0.0019
     15  CD1       10.3650    8.0360   33.2170 C.3   242  LEU242      0.0001
     16  CD2        9.7080    7.6680   35.6080 C.3   242  LEU242      0.0001
     17  N          6.2980    4.2390   33.3040 N.am  243  HIS243     -0.1976
     18  CA         4.9900    3.8310   32.7870 C.3   243  HIS243      0.1656
     19  C          4.7410    2.3570   33.1090 C.2   243  HIS243      0.2291
     20  O          4.5170    1.5280   32.2300 O.2   243  HIS243     -0.2864
     21  CB         4.8720    4.1370   31.2850 C.3   243  HIS243      0.0771
     22  CG         4.9290    5.6060   30.9640 C.ar  243  HIS243      0.0820
     23  ND1        5.9630    6.1780   30.2500 N.ar  243  HIS243     -0.2267
     24  CD2        4.0860    6.6210   31.2790 C.ar  243  HIS243      0.1154
     25  CE1        5.7500    7.4780   30.1340 C.ar  243  HIS243      0.1986
     26  NE2        4.6170    7.7720   30.7480 N.ar  243  HIS243     -0.2212
     27  N         -0.3880    7.1550   39.3510 N.3   259  ASP259     -0.1239
     28  CA        -0.6050    8.1570   38.3120 C.3   259  ASP259      0.1674
     29  C         -1.8650    7.7520   37.5590 C.2   259  ASP259      0.2266
     30  O         -1.9200    6.6920   36.9260 O.2   259  ASP259     -0.2867
     31  CB         0.5970    8.2500   37.3660 C.3   259  ASP259      0.1410
     32  CG         0.5890    9.5210   36.5100 C.2   259  ASP259      0.3668
     33  OD1       -0.4580   10.1990   36.3650 O.co2 259  ASP259     -0.2456
     34  OD2        1.6590    9.8740   35.9690 O.co2 259  ASP259     -0.2456
     35  N         -4.8310   14.4930   35.1380 N.3   270  ASP270     -0.1239
     36  CA        -3.5440   13.8260   35.1920 C.3   270  ASP270      0.1674
     37  C         -2.8840   14.1400   36.5330 C.2   270  ASP270      0.2266
     38  O         -2.2240   15.1630   36.6840 O.2   270  ASP270     -0.2867
     39  CB        -2.6860   14.3040   34.0210 C.3   270  ASP270      0.1410
     40  CG        -1.3530   13.5960   33.9310 C.2   270  ASP270      0.3668
     41  OD1       -1.0540   12.6580   34.6920 O.co2 270  ASP270     -0.2456
     42  OD2       -0.5930   13.9800   33.0460 O.co2 270  ASP270     -0.2456
     43  N         12.7840   12.6090   33.1640 N.3   349  HIS349     -0.1226
     44  CA        11.7070   13.1280   32.3270 C.3   349  HIS349      0.1752
     45  C         11.5180   14.6210   32.5320 C.2   349  HIS349      0.2596
     46  O         12.1840   15.2330   33.3650 O.2   349  HIS349     -0.2718
     47  CB        10.4050   12.3510   32.5560 C.3   349  HIS349      0.0759
     48  CG         9.8650   12.4320   33.9530 C.ar  349  HIS349      0.0818
     49  ND1        9.1180   13.5000   34.4030 N.ar  349  HIS349     -0.2268
     50  CD2        9.9060   11.5450   34.9770 C.ar  349  HIS349      0.1154
     51  CE1        8.7420   13.2760   35.6500 C.ar  349  HIS349      0.1986
     52  NE2        9.2040   12.0970   36.0220 N.ar  349  HIS349     -0.2212
     53  N         10.6240   15.2050   31.7490 N.am  350  GLY350     -0.1957
     54  CA        10.3360   16.6320   31.8370 C.3   350  GLY350      0.1869
     55  C          9.4720   16.9780   33.0330 C.2   350  GLY350      0.2309
     56  O          8.7410   16.1400   33.5620 O.2   350  GLY350     -0.2863
     57  N          7.0410   19.2250   32.9970 N.3   352  SER352     -0.1202
     58  CA         5.7090   19.6900   32.5970 C.3   352  SER352      0.2020
     59  C          5.3760   19.3330   31.1580 C.2   352  SER352      0.2618
     60  O          6.2310   19.3980   30.2900 O.2   352  SER352     -0.2717
     61  CB         5.6290   21.2130   32.7180 C.3   352  SER352      0.2103
     62  OG         5.7020   21.6520   34.0560 O.3   352  SER352     -0.2182
     63  N          4.1150   18.9820   30.9060 N.am  353  HIS353     -0.1975
     64  CA         3.6010   18.8690   29.5560 C.3   353  HIS353      0.1656
     65  C          2.2530   19.5500   29.4830 C.2   353  HIS353      0.2291
     66  O          1.5790   19.7150   30.4970 O.2   353  HIS353     -0.2864
     67  CB         3.4870   17.3980   29.1000 C.3   353  HIS353      0.0771
     68  CG         2.6170   16.5560   29.9690 C.ar  353  HIS353      0.0820
     69  ND1        1.2410   16.5440   29.8650 N.ar  353  HIS353     -0.2267
     70  CD2        2.9300   15.6860   30.9640 C.ar  353  HIS353      0.1154
     71  CE1        0.7460   15.7210   30.7730 C.ar  353  HIS353      0.1986
     72  NE2        1.7500   15.1910   31.4480 N.ar  353  HIS353     -0.2212
     73  N         -1.0560   14.1840   26.9040 N.3   360  HIS360     -0.1241
     74  CA         0.1190   14.8930   26.4160 C.3   360  HIS360      0.1621
     75  C         -0.3700   15.7310   25.2900 C.2   360  HIS360      0.2264
     76  O         -0.4260   15.2590   24.1730 O.2   360  HIS360     -0.2867
     77  CB         1.2060   13.9170   25.9610 C.3   360  HIS360      0.0745
     78  CG         1.7430   13.0730   27.0720 C.ar  360  HIS360      0.0817
     79  ND1        2.3750   11.8690   26.8560 N.ar  360  HIS360     -0.2268
     80  CD2        1.7130   13.2470   28.4150 C.ar  360  HIS360      0.1154
     81  CE1        2.7320   11.3480   28.0180 C.ar  360  HIS360      0.1986
     82  NE2        2.3410   12.1630   28.9800 N.ar  360  HIS360     -0.2212
     83  N          6.1910   23.6000   21.9310 N.3   365  TYR365     -0.1241
     84  CA         6.8990   23.8210   23.2090 C.3   365  TYR365      0.1605
     85  C          8.0820   24.7990   23.0970 C.2   365  TYR365      0.2264
     86  O          8.5420   25.3450   24.0850 O.2   365  TYR365     -0.2867
     87  CB         7.4740   22.4940   23.7190 C.3   365  TYR365      0.0534
     88  CG         6.4860   21.5900   24.4060 C.ar  365  TYR365     -0.0201
     89  CD1        6.1190   21.8100   25.7330 C.ar  365  TYR365     -0.0009
     90  CD2        5.9440   20.5010   23.7440 C.ar  365  TYR365     -0.0009
     91  CE1        5.2140   20.9720   26.3770 C.ar  365  TYR365      0.0417
     92  CE2        5.0370   19.6570   24.3720 C.ar  365  TYR365      0.0417
     93  CZ         4.6830   19.8940   25.6930 C.ar  365  TYR365      0.1957
     94  OH         3.7880   19.0700   26.3220 O.3   365  TYR365     -0.2866
     95  N         11.6440   23.3080   25.5300 N.3   369  ARG369     -0.1245
     96  CA        10.4550   23.7880   26.2250 C.3   369  ARG369      0.1563
     97  C         10.6460   25.2010   26.7590 C.2   369  ARG369      0.2260
     98  O         10.2040   25.5340   27.8520 O.2   369  ARG369     -0.2867
     99  CB        10.0040   22.7810   27.3020 C.3   369  ARG369      0.0307
    100  CG         9.8790   21.3450   26.7410 C.3   369  ARG369      0.0489
    101  CD         9.0560   20.4110   27.6170 C.3   369  ARG369      0.2205
    102  NE         9.6200   19.0570   27.6190 N.pl3 369  ARG369     -0.0865
    103  CZ         9.0020   17.9510   28.0430 C.cat 369  ARG369      0.5346
    104  NH1        7.7560   17.9850   28.5030 N.pl3 369  ARG369      0.1354
    105  NH2        9.6460   16.7890   27.9960 N.pl3 369  ARG369      0.1354
    106  N          5.1680   17.9980   37.4630 N.3   382  GLU382     -0.1245
    107  CA         5.3750   16.6360   37.9500 C.3   382  GLU382      0.1567
    108  C          6.8270   16.2610   38.1870 C.2   382  GLU382      0.2260
    109  O          7.3680   15.3710   37.5340 O.2   382  GLU382     -0.2867
    110  CB         4.6940   15.6360   37.0310 C.3   382  GLU382      0.0388
    111  CG         5.1260   15.6490   35.6140 C.3   382  GLU382      0.1160
    112  CD         4.2310   14.7500   34.7840 C.2   382  GLU382      0.3649
    113  OE1        4.1060   13.5320   35.0850 O.co2 382  GLU382     -0.2457
    114  OE2        3.6300   15.2870   33.8480 O.co2 382  GLU382     -0.2457
    115  N          6.7970   10.4570   42.7090 N.3   403  ARG403     -0.1245
    116  CA         6.3700   11.5440   41.8480 C.3   403  ARG403      0.1563
    117  C          5.1260   12.1790   42.4650 C.2   403  ARG403      0.2260
    118  O          4.2760   11.4970   43.0560 O.2   403  ARG403     -0.2867
    119  CB         6.0800   11.0580   40.4210 C.3   403  ARG403      0.0307
    120  CG         5.5790   12.1580   39.4820 C.3   403  ARG403      0.0489
    121  CD         5.5850   11.7870   38.0130 C.3   403  ARG403      0.2205
    122  NE         4.6540   10.7190   37.6300 N.pl3 403  ARG403     -0.0865
    123  CZ         4.9940    9.4520   37.3550 C.cat 403  ARG403      0.5346
    124  NH1        6.2460    9.0290   37.4260 N.pl3 403  ARG403      0.1354
    125  NH2        4.0600    8.5900   36.9880 N.pl3 403  ARG403      0.1354
@<TRIPOS>BOND
     1    83    84    1
     2    85    84    1
     3    85    86    2
     4    84    87    1
     5    87    88    1
     6    90    92   ar
     7    90    88   ar
     8    76    75    2
     9    92    93   ar
    10    88    89   ar
    11    75    74    1
    12    95    96    1
    13    93    94    1
    14    93    91   ar
    15    89    91   ar
    16    77    74    1
    17    77    78    1
    18    96    97    1
    19    96    99    1
    20    74    73    1
    21   100    99    1
    22   100   101    1
    23    97    98    2
    24    79    78   ar
    25    79    81   ar
    26    78    80   ar
    27   101   102    1
    28   102   103    2
    29   105   103    1
    30    81    82   ar
    31   103   104    1
    32    80    82   ar
    33    67    64    1
    34    67    68    1
    35    65    64    1
    36    65    66    2
    37    64    63    1
    38    69    68   ar
    39    69    71   ar
    40    68    70   ar
    41    25    23   ar
    42    25    26   ar
    43    23    22   ar
    44    60    59    2
    45    26    24   ar
    46    71    72   ar
    47    63    59   am
    48    70    72   ar
    49    22    24   ar
    50    22    21    1
    51    59    58    1
    52    21    18    1
    53    53    54    1
    54    53    45   am
    55    54    55    1
    56    20    19    2
    57    44    45    1
    58    44    47    1
    59    44    43    1
    60    45    46    2
    61    47    48    1
    62    58    61    1
    63    58    57    1
    64    61    62    1
    65    18    19    1
    66    18    17    1
    67    55    56    2
    68    42    40   ar
    69    15    14    1
    70    17    11   am
    71    13    14    1
    72    13    10    1
    73   114   112   ar
    74    40    39    1
    75    40    41   ar
    76    48    49   ar
    77    48    50   ar
    78    39    36    1
    79    14    16    1
    80    11    10    1
    81    11    12    2
    82    49    51   ar
    83     8     6    1
    84    10     9    1
    85   112   113   ar
    86   112   111    1
    87    50    52   ar
    88     6     5    1
    89    35    36    1
    90    36    37    1
    91   111   110    1
    92    51    52   ar
    93    34    32   ar
    94     1     2    1
    95    33    32   ar
    96    32    31    1
    97    37    38    2
    98     5     2    1
    99     5     7    1
   100     2     3    1
   101    30    29    2
   102   125   123    1
   103   110   107    1
   104   123   124    1
   105   123   122    2
   106    31    28    1
   107   106   107    1
   108   109   108    2
   109    29    28    1
   110   122   121    1
   111   107   108    1
   112   121   120    1
   113    28    27    1
   114     3     4    2
   115   120   119    1
   116   119   116    1
   117   116   117    1
   118   116   115    1
   119   117   118    2
