@<TRIPOS>MOLECULE
tmp/1w7xA00.pdb
 191 189 0 0 0
SMALL
GASTEIGER

@<TRIPOS>ATOM
      1  N         13.6630   42.6190   40.4420 N.3    41  HIS41      -0.1226
      2  CA        12.3130   42.8490   39.8810 C.3    41  HIS41       0.1752
      3  C         11.2930   41.7900   40.2670 C.2    41  HIS41       0.2596
      4  O         10.0810   42.0200   40.1940 O.2    41  HIS41      -0.2718
      5  CB        12.3440   43.0860   38.3680 C.3    41  HIS41       0.0759
      6  CG        12.3560   41.8380   37.5370 C.ar   41  HIS41       0.0818
      7  ND1       13.5060   41.3380   36.9540 N.ar   41  HIS41      -0.2268
      8  CD2       11.3470   41.0340   37.1230 C.ar   41  HIS41       0.1154
      9  CE1       13.2120   40.2540   36.2590 C.ar   41  HIS41       0.1986
     10  NE2       11.9060   40.0580   36.3300 N.ar   41  HIS41      -0.2212
     11  N         11.7840   40.6400   40.7170 N.am   42  CYS42      -0.1970
     12  CA        10.9280   39.5780   41.2290 C.3    42  CYS42       0.1712
     13  C         10.0990   40.0130   42.4370 C.2    42  CYS42       0.2296
     14  O          9.1070   39.3530   42.7900 O.2    42  CYS42      -0.2864
     15  CB        11.7790   38.3610   41.6170 C.3    42  CYS42       0.0983
     16  SG        12.4930   37.5450   40.1430 S.3    42  CYS42      -0.0798
     17  N          8.8980   43.3200   42.9230 N.3    44  ASP44      -0.1225
     18  CA         8.1830   44.5700   42.6550 C.3    44  ASP44       0.1805
     19  C          6.7260   44.5740   43.1590 C.2    44  ASP44       0.2597
     20  O          6.1840   45.6210   43.5140 O.2    44  ASP44      -0.2718
     21  CB         8.1860   44.8740   41.1610 C.3    44  ASP44       0.1424
     22  CG         9.4540   45.5720   40.6970 C.2    44  ASP44       0.3668
     23  OD1       10.4250   45.6960   41.4830 O.co2  44  ASP44      -0.2456
     24  OD2        9.4750   46.0010   39.5290 O.co2  44  ASP44      -0.2456
     25  N          6.1090   43.4040   43.1880 N.am   45  LYS45      -0.1979
     26  CA         4.6980   43.2970   43.5500 C.3    45  LYS45       0.1596
     27  C          4.4790   42.3450   44.7140 C.2    45  LYS45       0.2287
     28  O          3.5540   41.5260   44.6770 O.2    45  LYS45      -0.2864
     29  CB         3.9160   42.7780   42.3520 C.3    45  LYS45       0.0298
     30  CG         4.3600   43.3470   41.0310 C.3    45  LYS45       0.0038
     31  CD         4.1410   42.3310   39.9440 C.3    45  LYS45       0.0206
     32  CE         4.4480   42.9360   38.5880 C.3    45  LYS45       0.1093
     33  NZ         3.7280   42.2010   37.5210 N.3    45  LYS45      -0.1314
     34  N         10.0740   48.7600   38.9610 N.3    85  GLY85      -0.1210
     35  CA         9.4200   49.0040   37.6810 C.3    85  GLY85       0.1956
     36  C         10.3950   49.3960   36.5900 C.2    85  GLY85       0.2613
     37  O          9.9780   49.7390   35.4800 O.2    85  GLY85      -0.2717
     38  N         11.6930   49.3540   36.9030 N.am   86  THR86      -0.1938
     39  CA        12.7520   49.6130   35.9220 C.3    86  THR86       0.2028
     40  C         13.7740   48.4640   35.9040 C.2    86  THR86       0.2642
     41  O         13.6340   47.4880   36.6570 O.2    86  THR86      -0.2714
     42  CB        13.4530   50.9640   36.1630 C.3    86  THR86       0.1808
     43  OG1       14.2460   50.8850   37.3560 O.3    86  THR86      -0.2208
     44  CG2       12.4430   52.1090   36.2830 C.3    86  THR86       0.0379
     45  N         14.7840   48.5690   35.0410 N.am   87  THR87      -0.1950
     46  CA        15.6610   47.4260   34.7330 C.3    87  THR87       0.1897
     47  C         17.0560   47.4520   35.3610 C.2    87  THR87       0.2313
     48  O         17.6690   46.3980   35.5190 O.2    87  THR87      -0.2863
     49  CB        15.8420   47.2300   33.2080 C.3    87  THR87       0.1794
     50  OG1       16.2820   48.4630   32.6030 O.3    87  THR87      -0.2208
     51  CG2       14.5410   46.7620   32.5560 C.3    87  THR87       0.0378
     52  N         19.4060   45.0330   38.5790 N.3    90  ASP90      -0.1239
     53  CA        18.3850   44.0230   38.8080 C.3    90  ASP90       0.1674
     54  C         18.9320   42.7880   39.5450 C.2    90  ASP90       0.2266
     55  O         19.1510   41.7170   38.9620 O.2    90  ASP90      -0.2867
     56  CB        17.7140   43.6470   37.4790 C.3    90  ASP90       0.1410
     57  CG        16.4230   42.8600   37.6690 C.2    90  ASP90       0.3668
     58  OD1       15.9040   42.3510   36.6510 O.co2  90  ASP90      -0.2456
     59  OD2       15.8960   42.7850   38.8000 O.co2  90  ASP90      -0.2456
     60  N         13.8470   48.0120   24.7850 N.3   164  SER164     -0.1203
     61  CA        13.5020   49.4110   24.9730 C.3   164  SER164      0.2005
     62  C         14.4380   50.0920   25.9790 C.2   164  SER164      0.2460
     63  O         15.0220   51.1200   25.6450 O.2   164  SER164     -0.2732
     64  CB        12.0240   49.5860   25.3710 C.3   164  SER164      0.2103
     65  OG        11.1950   49.5630   24.2180 O.3   164  SER164     -0.2182
     66  N         14.5960   49.5290   27.2070 N.am  165  PRO165     -0.2728
     67  CA        15.5130   50.1800   28.1400 C.3   165  PRO165      0.1401
     68  C         16.9550   50.1930   27.6380 C.2   165  PRO165      0.2269
     69  O         17.3240   49.3880   26.7750 O.2   165  PRO165     -0.2865
     70  CB        15.4100   49.3090   29.4070 C.3   165  PRO165      0.0296
     71  CG        14.1350   48.5740   29.2710 C.3   165  PRO165      0.0237
     72  CD        13.9720   48.3390   27.8150 C.3   165  PRO165      0.0939
     73  N         16.0620   31.4450   23.9770 N.3   182  ASP182     -0.1225
     74  CA        16.1180   32.5570   24.9320 C.3   182  ASP182      0.1805
     75  C         15.6280   32.0550   26.2890 C.2   182  ASP182      0.2598
     76  O         15.0220   30.9870   26.3840 O.2   182  ASP182     -0.2718
     77  CB        15.1960   33.6780   24.4740 C.3   182  ASP182      0.1424
     78  CG        15.5430   35.0380   25.0620 C.2   182  ASP182      0.3668
     79  OD1       16.4530   35.1770   25.9240 O.co2 182  ASP182     -0.2456
     80  OD2       14.8510   35.9930   24.6510 O.co2 182  ASP182     -0.2456
     81  N         15.8790   32.8410   27.3350 N.am  183  SER183     -0.1938
     82  CA        15.1800   32.6520   28.6050 C.3   183  SER183      0.2055
     83  C         13.9440   33.5500   28.5220 C.2   183  SER183      0.2643
     84  O         13.8580   34.3770   27.6120 O.2   183  SER183     -0.2714
     85  CB        16.0860   33.0090   29.8020 C.3   183  SER183      0.2130
     86  OG        16.6330   34.3110   29.6790 O.3   183  SER183     -0.2179
     87  N         12.9840   33.3660   29.4270 N.am  184  CYS184     -0.1953
     88  CA        11.7490   34.1580   29.3920 C.3   184  CYS184      0.1843
     89  C         11.3960   34.6910   30.7650 C.2   184  CYS184      0.2625
     90  O         12.0780   34.4030   31.7600 O.2   184  CYS184     -0.2714
     91  CB        10.5630   33.3360   28.8570 C.3   184  CYS184      0.0997
     92  SG        10.7670   32.5950   27.2200 S.3   184  CYS184     -0.0797
     93  N         10.3010   35.4480   30.8270 N.am  185  LYS185     -0.1977
     94  CA         9.9390   36.1200   32.0660 C.3   185  LYS185      0.1596
     95  C          9.8520   35.1680   33.2640 C.2   185  LYS185      0.2287
     96  O         10.2750   35.5320   34.3660 O.2   185  LYS185     -0.2864
     97  CB         8.6580   36.9440   31.8900 C.3   185  LYS185      0.0298
     98  CG         7.3990   36.1500   31.7070 C.3   185  LYS185      0.0038
     99  CD         6.2530   37.0920   31.3130 C.3   185  LYS185      0.0206
    100  CE         4.9530   36.6550   31.9210 C.3   185  LYS185      0.1093
    101  NZ         3.8020   37.3000   31.2160 N.3   185  LYS185     -0.1314
    102  N         12.9950   34.6160   35.2120 N.3   188  SER188     -0.1217
    103  CA        13.5740   35.7900   35.8770 C.3   188  SER188      0.1889
    104  C         14.2000   35.3950   37.1960 C.2   188  SER188      0.2288
    105  O         13.6070   34.6240   37.9580 O.2   188  SER188     -0.2866
    106  CB        12.5070   36.8560   36.1690 C.3   188  SER188      0.2089
    107  OG        12.0180   37.4460   34.9780 O.3   188  SER188     -0.2183
    108  N         18.9340   36.0820   35.0190 N.3   206  VAL206     -0.1231
    109  CA        17.8460   36.3420   34.0660 C.3   206  VAL206      0.1692
    110  C         17.0800   37.6110   34.4740 C.2   206  VAL206      0.2593
    111  O         16.4560   37.6700   35.5470 O.2   206  VAL206     -0.2718
    112  CB        16.8740   35.1470   33.9380 C.3   206  VAL206      0.0266
    113  CG1       15.7310   35.4900   32.9260 C.3   206  VAL206      0.0020
    114  CG2       17.6150   33.8570   33.5570 C.3   206  VAL206      0.0020
    115  N         17.1610   38.6370   33.6240 N.am  207  SER207     -0.1938
    116  CA        16.6500   39.9700   33.9760 C.3   207  SER207      0.2055
    117  C         15.5150   40.4310   33.0700 C.2   207  SER207      0.2643
    118  O         14.3900   40.5570   33.5230 O.2   207  SER207     -0.2714
    119  CB        17.7860   41.0090   33.9800 C.3   207  SER207      0.2130
    120  OG        17.3710   42.2600   34.5190 O.3   207  SER207     -0.2179
    121  N         15.8150   40.7130   31.8000 N.am  208  TRP208     -0.1959
    122  CA        14.7810   41.2880   30.9390 C.3   208  TRP208      0.1771
    123  C         15.0020   41.0130   29.4700 C.2   208  TRP208      0.2620
    124  O         16.0210   40.4610   29.0680 O.2   208  TRP208     -0.2715
    125  CB        14.5900   42.7890   31.1910 C.3   208  TRP208      0.0590
    126  CG        15.7620   43.6890   30.8590 C.ar  208  TRP208      0.0006
    127  CD1       16.7800   44.0380   31.6950 C.ar  208  TRP208      0.0946
    128  CD2       15.9840   44.4070   29.6310 C.ar  208  TRP208      0.0152
    129  NE1       17.6460   44.9050   31.0580 N.ar  208  TRP208     -0.2442
    130  CE2       17.1800   45.1450   29.7890 C.ar  208  TRP208      0.0810
    131  CE3       15.3010   44.4720   28.4030 C.ar  208  TRP208      0.0012
    132  CZ2       17.7140   45.9550   28.7640 C.ar  208  TRP208      0.0191
    133  CZ3       15.8310   45.2780   27.3820 C.ar  208  TRP208      0.0001
    134  CH2       17.0190   46.0100   27.5730 C.ar  208  TRP208      0.0015
    135  N         14.0190   41.4090   28.6800 N.am  209  GLY209     -0.1940
    136  CA        14.1290   41.2700   27.2380 C.3   209  GLY209      0.2014
    137  C         12.8560   41.7640   26.6070 C.2   209  GLY209      0.2639
    138  O         11.8480   41.9980   27.2950 O.2   209  GLY209     -0.2714
    139  N         12.9100   41.9220   25.2860 N.am  210  GLN210     -0.1963
    140  CA        11.7270   42.3280   24.5260 C.3   210  GLN210      0.1733
    141  C         11.0080   41.0380   24.1560 C.2   210  GLN210      0.2617
    142  O         11.4690   40.3000   23.2730 O.2   210  GLN210     -0.2715
    143  CB        12.1370   43.1240   23.2800 C.3   210  GLN210      0.0408
    144  CG        10.9580   43.5360   22.3950 C.3   210  GLN210      0.0908
    145  CD         9.9660   44.4360   23.0930 C.2   210  GLN210      0.2608
    146  OE1        8.9320   43.9750   23.5790 O.2   210  GLN210     -0.2717
    147  NE2       10.2670   45.7280   23.1450 N.am  210  GLN210     -0.0878
    148  N          9.9060   40.7530   24.8540 N.am  211  GLY211     -0.1940
    149  CA         9.2810   39.4370   24.7800 C.3   211  GLY211      0.2014
    150  C         10.3100   38.3660   25.0960 C.2   211  GLY211      0.2639
    151  O         11.2680   38.6310   25.8310 O.2   211  GLY211     -0.2714
    152  N         10.1270   37.1600   24.5640 N.am  212  CYS212     -0.1967
    153  CA        11.2070   36.1880   24.6360 C.3   212  CYS212      0.1712
    154  C         11.3950   35.4110   23.3400 C.2   212  CYS212      0.2296
    155  O         10.4270   35.0220   22.6850 O.2   212  CYS212     -0.2864
    156  CB        11.1330   35.3140   25.9030 C.3   212  CYS212      0.0983
    157  SG         9.9340   34.0110   25.9560 S.3   212  CYS212     -0.0798
    158  N         18.0420   39.9930   21.9300 N.3   218  PHE218     -0.1227
    159  CA        18.7580   39.0610   22.7850 C.3   218  PHE218      0.1736
    160  C         18.1820   39.1700   24.2080 C.2   218  PHE218      0.2596
    161  O         17.5600   40.1710   24.5550 O.2   218  PHE218     -0.2718
    162  CB        20.2510   39.4310   22.8020 C.3   218  PHE218      0.0547
    163  CG        20.9440   39.2470   21.4760 C.ar  218  PHE218     -0.0202
    164  CD1       21.6130   38.0590   21.1860 C.ar  218  PHE218     -0.0042
    165  CD2       20.9440   40.2700   20.5250 C.ar  218  PHE218     -0.0042
    166  CE1       22.2670   37.8760   19.9540 C.ar  218  PHE218     -0.0003
    167  CE2       21.5940   40.1030   19.2790 C.ar  218  PHE218     -0.0003
    168  CZ        22.2550   38.9150   18.9990 C.ar  218  PHE218     -0.0000
    169  N         18.4130   38.1490   25.0230 N.am  219  GLY219     -0.1942
    170  CA        18.0970   38.2360   26.4430 C.3   219  GLY219      0.2014
    171  C         19.0680   39.1680   27.1280 C.2   219  GLY219      0.2639
    172  O         20.2280   39.2920   26.7200 O.2   219  GLY219     -0.2714
    173  N         18.6000   39.8470   28.1680 N.am  220  VAL220     -0.1963
    174  CA        19.4700   40.7360   28.9180 C.3   220  VAL220      0.1727
    175  C         19.5900   40.2350   30.3580 C.2   220  VAL220      0.2616
    176  O         18.5920   39.8460   30.9770 O.2   220  VAL220     -0.2715
    177  CB        18.9940   42.2040   28.8490 C.3   220  VAL220      0.0290
    178  CG1       20.0260   43.1290   29.5150 C.3   220  VAL220      0.0023
    179  CG2       18.7950   42.6250   27.3780 C.3   220  VAL220      0.0023
    180  N         20.8310   40.2210   30.8490 N.am  221  TYR221     -0.1974
    181  CA        21.1950   39.6050   32.1370 C.3   221  TYR221      0.1639
    182  C         21.9120   40.6000   33.0270 C.2   221  TYR221      0.2290
    183  O         22.6720   41.4520   32.5570 O.2   221  TYR221     -0.2864
    184  CB        22.1090   38.3900   31.8840 C.3   221  TYR221      0.0560
    185  CG        21.4150   37.3210   31.0790 C.ar  221  TYR221     -0.0198
    186  CD1       21.3460   37.4090   29.6800 C.ar  221  TYR221     -0.0009
    187  CD2       20.7760   36.2460   31.7120 C.ar  221  TYR221     -0.0009
    188  CE1       20.6550   36.4550   28.9360 C.ar  221  TYR221      0.0417
    189  CE2       20.0970   35.2700   30.9690 C.ar  221  TYR221      0.0417
    190  CZ        20.0390   35.3850   29.5850 C.ar  221  TYR221      0.1957
    191  OH        19.3610   34.4140   28.8640 O.3   221  TYR221     -0.2866
@<TRIPOS>BOND
     1   168   167   ar
     2   168   166   ar
     3   167   165   ar
     4   166   164   ar
     5   165   163   ar
     6   164   163   ar
     7   163   162    1
     8   158   159    1
     9   144   145    1
    10   144   143    1
    11   155   154    2
    12   159   162    1
    13   159   160    1
    14   145   147   am
    15   145   146    2
    16   142   141    2
    17   143   140    1
    18   154   153    1
    19    73    74    1
    20   141   140    1
    21   141   148   am
    22   160   161    2
    23   160   169   am
    24    65    64    1
    25    77    74    1
    26    77    78    1
    27   140   139    1
    28   152   153    1
    29   152   150   am
    30   153   156    1
    31    80    78   ar
    32   149   148    1
    33   149   150    1
    34    60    61    1
    35    74    75    1
    36    61    64    1
    37    61    62    1
    38   169   170    1
    39    78    79   ar
    40   150   151    2
    41   139   137   am
    42    63    62    2
    43   156   157    1
    44   157    92    1
    45    62    66   am
    46    75    76    2
    47    75    81   am
    48   170   171    1
    49   137   136    1
    50   137   138    2
    51   172   171    2
    52    69    68    2
    53   171   173   am
    54    66    72    1
    55    66    67    1
    56    92    91    1
    57   136   135    1
    58    81    82    1
    59   179   177    1
    60   133   134   ar
    61   133   131   ar
    62   134   132   ar
    63    84    83    2
    64    68    67    1
    65    72    71    1
    66    67    70    1
    67   173   174    1
    68   131   128   ar
    69    83    82    1
    70    83    87   am
    71    82    85    1
    72   135   123   am
    73   132   130   ar
    74   177   174    1
    75   177   178    1
    76    91    88    1
    77   191   190    1
    78   174   175    1
    79   188   190   ar
    80   188   186   ar
    81   124   123    2
    82    71    70    1
    83    88    87    1
    84    88    89    1
    85   123   122    1
    86   190   189   ar
    87   128   130   ar
    88   128   126   ar
    89    86    85    1
    90   186   185   ar
    91   130   129   ar
    92   175   180   am
    93   175   176    2
    94    89    93   am
    95    89    90    2
    96    93    94    1
    97   180   181    1
    98   126   125    1
    99   126   127   ar
   100   122   125    1
   101   122   121    1
   102   189   187   ar
   103   129   127   ar
   104   185   187   ar
   105   185   184    1
   106   101   100    1
   107    99    98    1
   108    99   100    1
   109    98    97    1
   110   121   117   am
   111   184   181    1
   112    97    94    1
   113    94    95    1
   114   181   182    1
   115    51    49    1
   116   183   182    2
   117    50    49    1
   118   113   112    1
   119   117   118    2
   120   117   116    1
   121    49    46    1
   122    95    96    2
   123   114   112    1
   124   115   116    1
   125   115   110   am
   126   112   109    1
   127   116   119    1
   128   119   120    1
   129   109   110    1
   130   109   108    1
   131   110   111    2
   132    46    45    1
   133    46    47    1
   134   107   106    1
   135    45    40   am
   136   102   103    1
   137    47    48    2
   138    37    36    2
   139   103   106    1
   140   103   104    1
   141    40    39    1
   142    40    41    2
   143    39    42    1
   144    39    38    1
   145    42    44    1
   146    42    43    1
   147     9    10   ar
   148     9     7   ar
   149    10     8   ar
   150    36    38   am
   151    36    35    1
   152    58    57   ar
   153     7     6   ar
   154     8     6   ar
   155   104   105    2
   156    56    57    1
   157    56    53    1
   158    33    32    1
   159     6     5    1
   160    57    59   ar
   161    35    34    1
   162     5     2    1
   163    52    53    1
   164    32    31    1
   165    53    54    1
   166    55    54    2
   167    24    22   ar
   168     2     3    1
   169     2     1    1
   170    31    30    1
   171    16    15    1
   172     4     3    2
   173     3    11   am
   174    22    21    1
   175    22    23   ar
   176    11    12    1
   177    30    29    1
   178    21    18    1
   179    12    15    1
   180    12    13    1
   181    29    26    1
   182    13    14    2
   183    18    17    1
   184    18    19    1
   185    19    25   am
   186    19    20    2
   187    25    26    1
   188    26    27    1
   189    28    27    2
