@<TRIPOS>MOLECULE
tmp/1w82A00.pdb
 201 191 0 0 0
SMALL
GASTEIGER

@<TRIPOS>ATOM
      1  N          3.1150   13.1630   25.2880 N.3    35  VAL35      -0.1245
      2  CA         3.1660   11.8380   25.8870 C.3    35  VAL35       0.1561
      3  C          2.6300   10.8000   24.8780 C.2    35  VAL35       0.2260
      4  O          1.6590   11.0760   24.1620 O.2    35  VAL35      -0.2867
      5  CB         2.3560   11.8000   27.2090 C.3    35  VAL35       0.0252
      6  CG1        2.4000   10.4040   27.8530 C.3    35  VAL35       0.0019
      7  CG2        2.8800   12.8630   28.1780 C.3    35  VAL35       0.0019
      8  N          4.6680    4.8620   29.5460 N.3    48  ALA48      -0.1231
      9  CA         4.3240    6.1740   29.0520 C.3    48  ALA48       0.1694
     10  C          5.6410    6.8790   28.8110 C.2    48  ALA48       0.2592
     11  O          6.5670    6.7320   29.6120 O.2    48  ALA48      -0.2718
     12  CB         3.5030    6.9080   30.0710 C.3    48  ALA48       0.0304
     13  N          5.7380    7.5940   27.6910 N.am   49  VAL49      -0.1966
     14  CA         6.9770    8.2360   27.2780 C.3    49  VAL49       0.1727
     15  C          6.6380    9.6850   27.0130 C.2    49  VAL49       0.2616
     16  O          5.8150    9.9440   26.1390 O.2    49  VAL49      -0.2715
     17  CB         7.5890    7.6020   26.0090 C.3    49  VAL49       0.0290
     18  CG1        9.0100    8.1550   25.7660 C.3    49  VAL49       0.0023
     19  CG2        7.6100    6.0810   26.1230 C.3    49  VAL49       0.0023
     20  N          7.2260   10.6010   27.7970 N.am   50  LYS50      -0.1977
     21  CA         7.1380   12.0310   27.5410 C.3    50  LYS50       0.1596
     22  C          8.3520   12.4970   26.7480 C.2    50  LYS50       0.2287
     23  O          9.4660   12.3560   27.2280 O.2    50  LYS50      -0.2864
     24  CB         7.0340   12.8450   28.8390 C.3    50  LYS50       0.0298
     25  CG         7.0050   14.3490   28.5950 C.3    50  LYS50       0.0038
     26  CD         6.4340   15.1240   29.7640 C.3    50  LYS50       0.0206
     27  CE         7.3180   15.0560   30.9980 C.3    50  LYS50       0.1093
     28  NZ         7.0890   16.2570   31.8650 N.3    50  LYS50      -0.1314
     29  N         14.4480   23.9640   33.7650 N.3    64  ARG64      -0.1245
     30  CA        13.2890   23.0800   33.9420 C.3    64  ARG64       0.1563
     31  C         13.5730   21.6470   33.4920 C.2    64  ARG64       0.2260
     32  O         13.1990   20.6950   34.1850 O.2    64  ARG64      -0.2867
     33  CB        12.0670   23.6230   33.1880 C.3    64  ARG64       0.0307
     34  CG        10.7430   22.9260   33.5260 C.3    64  ARG64       0.0489
     35  CD         9.6780   23.2200   32.4910 C.3    64  ARG64       0.2205
     36  NE         8.4470   22.4830   32.8050 N.pl3  64  ARG64      -0.0865
     37  CZ         7.5450   22.8360   33.7220 C.cat  64  ARG64       0.5346
     38  NH1        7.6730   23.9370   34.4590 N.pl3  64  ARG64       0.1354
     39  NH2        6.4850   22.0580   33.9030 N.pl3  64  ARG64       0.1354
     40  N         15.9430   20.2280   36.0880 N.3    67  ARG67      -0.1231
     41  CA        15.1520   20.0450   37.3000 C.3    67  ARG67       0.1694
     42  C         14.3330   18.7680   37.2370 C.2    67  ARG67       0.2591
     43  O         14.3940   17.9420   38.1620 O.2    67  ARG67      -0.2718
     44  CB        14.2300   21.2520   37.5340 C.3    67  ARG67       0.0321
     45  CG        13.3670   21.1600   38.8140 C.3    67  ARG67       0.0489
     46  CD        12.3980   22.3360   38.9700 C.3    67  ARG67       0.2205
     47  NE        13.0990   23.6220   39.0230 N.pl3  67  ARG67      -0.0865
     48  CZ        13.1300   24.5600   38.0700 C.cat  67  ARG67       0.5346
     49  NH1       12.4060   24.4940   36.9590 N.pl3  67  ARG67       0.1354
     50  NH2       13.8680   25.6490   38.2690 N.pl3  67  ARG67       0.1354
     51  N         13.5880   18.6040   36.1420 N.am   68  GLU68      -0.1979
     52  CA        12.7510   17.4260   35.9800 C.3    68  GLU68       0.1602
     53  C         13.5570   16.1360   36.0130 C.2    68  GLU68       0.2287
     54  O         13.2100   15.2290   36.7440 O.2    68  GLU68      -0.2864
     55  CB        11.8840   17.4870   34.7090 C.3    68  GLU68       0.0415
     56  CG        10.7950   16.4350   34.7340 C.3    68  GLU68       0.1163
     57  CD         9.7600   16.5570   33.6430 C.2    68  GLU68       0.3649
     58  OE1        9.9080   17.3490   32.6930 O.co2  68  GLU68      -0.2457
     59  OE2        8.7680   15.8250   33.7340 O.co2  68  GLU68      -0.2457
     60  N         14.9010   15.4750   39.5270 N.3    71  LEU71      -0.1231
     61  CA        13.8070   15.0110   40.4270 C.3    71  LEU71       0.1693
     62  C         13.4490   13.5500   40.1640 C.2    71  LEU71       0.2591
     63  O         13.4170   12.7110   41.0700 O.2    71  LEU71      -0.2718
     64  CB        12.5430   15.8670   40.2700 C.3    71  LEU71       0.0284
     65  CG        12.0110   16.8600   41.3170 C.3    71  LEU71       0.0019
     66  CD1       13.0010   17.6180   42.0800 C.3    71  LEU71       0.0001
     67  CD2       11.1020   17.8260   40.6400 C.3    71  LEU71       0.0001
     68  N         13.2240   13.2570   38.8980 N.am   72  LEU72      -0.1980
     69  CA        12.8120   11.9250   38.4590 C.3    72  LEU72       0.1596
     70  C         13.8570   10.8300   38.7130 C.2    72  LEU72       0.2287
     71  O         13.4960    9.7220   39.1130 O.2    72  LEU72      -0.2864
     72  CB        12.3860   11.9780   36.9810 C.3    72  LEU72       0.0297
     73  CG        10.9070   11.8650   36.5890 C.3    72  LEU72       0.0022
     74  CD1        9.8900   12.3710   37.6100 C.3    72  LEU72       0.0001
     75  CD2       10.6540   12.5170   35.2090 C.3    72  LEU72       0.0001
     76  N         13.6520   10.0730   42.6650 N.3    75  MET75      -0.1245
     77  CA        12.4370    9.3950   43.1200 C.3    75  MET75       0.1570
     78  C         12.4770    7.8650   43.0790 C.2    75  MET75       0.2261
     79  O         12.4890    7.2780   42.0000 O.2    75  MET75      -0.2867
     80  CB        11.2450    9.8940   42.2920 C.3    75  MET75       0.0387
     81  CG        10.3200   10.7530   43.0390 C.3    75  MET75       0.0595
     82  SD        10.9390   12.0760   44.0450 S.3    75  MET75      -0.1393
     83  CE         9.6560   12.2310   45.1650 C.3    75  MET75       0.0692
     84  N          5.2900    7.0260   44.2110 N.3    80  VAL80      -0.1231
     85  CA         5.7340    8.1370   43.3810 C.3    80  VAL80       0.1692
     86  C          6.2420    7.5720   42.0670 C.2    80  VAL80       0.2591
     87  O          6.7830    6.4720   42.0500 O.2    80  VAL80      -0.2718
     88  CB         6.8400    8.9910   44.0740 C.3    80  VAL80       0.0266
     89  CG1        7.1150   10.2750   43.2630 C.3    80  VAL80       0.0020
     90  CG2        6.4570    9.3450   45.5060 C.3    80  VAL80       0.0020
     91  N          6.0140    8.3150   40.9750 N.am   81  ILE81      -0.1980
     92  CA         6.5980    8.0380   39.6580 C.3    81  ILE81       0.1595
     93  C          8.0750    7.6380   39.7790 C.2    81  ILE81       0.2287
     94  O          8.8300    8.2940   40.4920 O.2    81  ILE81      -0.2864
     95  CB         6.4400    9.2620   38.6720 C.3    81  ILE81       0.0276
     96  CG1        7.0860    8.9680   37.3140 C.3    81  ILE81       0.0022
     97  CG2        7.0200   10.5700   39.2460 C.3    81  ILE81       0.0022
     98  CD1        6.5850    9.8580   36.1720 C.3    81  ILE81       0.0001
     99  N         11.5400    6.6380   37.2820 N.3    83  LEU83      -0.1245
    100  CA        12.1170    6.6760   35.9170 C.3    83  LEU83       0.1561
    101  C         12.5040    5.2740   35.5160 C.2    83  LEU83       0.2260
    102  O         13.4520    4.7160   36.0700 O.2    83  LEU83      -0.2867
    103  CB        13.3890    7.5280   35.8030 C.3    83  LEU83       0.0270
    104  CG        13.4070    8.8560   35.0640 C.3    83  LEU83       0.0019
    105  CD1       14.8640    9.2150   34.8010 C.3    83  LEU83       0.0001
    106  CD2       12.5680    8.9650   33.7900 C.3    83  LEU83       0.0001
    107  N         11.5330   10.7810   28.4850 N.3   101  LEU101     -0.1231
    108  CA        11.4260   10.2730   29.8500 C.3   101  LEU101      0.1693
    109  C         10.3810    9.1600   29.8920 C.2   101  LEU101      0.2592
    110  O          9.2530    9.3750   29.4680 O.2   101  LEU101     -0.2718
    111  CB        11.0080   11.4100   30.7920 C.3   101  LEU101      0.0284
    112  CG        11.9700   12.5870   30.8870 C.3   101  LEU101      0.0019
    113  CD1       11.2860   13.7920   31.5140 C.3   101  LEU101      0.0001
    114  CD2       13.2280   12.1830   31.6650 C.3   101  LEU101      0.0001
    115  N         10.7580    7.9960   30.4100 N.am  102  VAL102     -0.1966
    116  CA         9.9250    6.8060   30.3870 C.3   102  VAL102      0.1727
    117  C          9.5190    6.3980   31.8080 C.2   102  VAL102      0.2616
    118  O         10.3590    6.3480   32.7150 O.2   102  VAL102     -0.2715
    119  CB        10.6530    5.6200   29.7050 C.3   102  VAL102      0.0290
    120  CG1        9.7280    4.4230   29.5640 C.3   102  VAL102      0.0023
    121  CG2       11.2080    6.0370   28.3350 C.3   102  VAL102      0.0023
    122  N          8.2280    6.1180   31.9870 N.am  103  THR103     -0.1951
    123  CA         7.7160    5.5360   33.2200 C.3   103  THR103      0.1897
    124  C          6.6150    4.5030   32.9350 C.2   103  THR103      0.2313
    125  O          6.1730    4.3590   31.7930 O.2   103  THR103     -0.2863
    126  CB         7.1870    6.6500   34.1650 C.3   103  THR103      0.1794
    127  OG1        6.9620    6.1000   35.4650 O.3   103  THR103     -0.2208
    128  CG2        5.8970    7.2930   33.6330 C.3   103  THR103      0.0378
    129  N          8.3140   12.6210   49.4110 N.3   138  ILE138     -0.1245
    130  CA         8.5740   13.8310   48.6230 C.3   138  ILE138      0.1561
    131  C          9.0550   14.9660   49.5470 C.2   138  ILE138      0.2260
    132  O         10.1400   15.5190   49.3440 O.2   138  ILE138     -0.2867
    133  CB         7.3000   14.2510   47.7930 C.3   138  ILE138      0.0252
    134  CG1        7.0250   13.2460   46.6730 C.3   138  ILE138      0.0019
    135  CG2        7.4750   15.6180   47.1310 C.3   138  ILE138      0.0019
    136  CD1        5.5710   13.1890   46.1430 C.3   138  ILE138      0.0001
    137  N         11.0540   18.7600   48.7260 N.3   143  ILE143     -0.1231
    138  CA        10.4410   18.9420   47.4040 C.3   143  ILE143      0.1692
    139  C          8.9750   19.2640   47.6700 C.2   143  ILE143      0.2592
    140  O          8.3360   18.5500   48.4340 O.2   143  ILE143     -0.2718
    141  CB        10.5450   17.6540   46.5410 C.3   143  ILE143      0.0266
    142  CG1       12.0130   17.3570   46.1960 C.3   143  ILE143      0.0019
    143  CG2        9.6910   17.7920   45.2330 C.3   143  ILE143      0.0020
    144  CD1       12.2850   15.9300   45.7580 C.3   143  ILE143      0.0001
    145  N          8.4640   20.3390   47.0640 N.am  144  ILE144     -0.1966
    146  CA         7.0470   20.6870   47.1270 C.3   144  ILE144      0.1727
    147  C          6.4330   20.3800   45.7520 C.2   144  ILE144      0.2616
    148  O          6.9690   20.7900   44.7300 O.2   144  ILE144     -0.2715
    149  CB         6.8260   22.1770   47.5530 C.3   144  ILE144      0.0290
    150  CG1        7.6040   22.4980   48.8560 C.3   144  ILE144      0.0022
    151  CG2        5.3380   22.4530   47.7570 C.3   144  ILE144      0.0023
    152  CD1        7.7200   23.9780   49.1870 C.3   144  ILE144      0.0001
    153  N          5.3200   19.6490   45.7340 N.am  145  HIS145     -0.1973
    154  CA         4.6290   19.3250   44.4900 C.3   145  HIS145      0.1656
    155  C          4.0040   20.5860   43.9120 C.2   145  HIS145      0.2291
    156  O          4.3390   20.9650   42.7940 O.2   145  HIS145     -0.2864
    157  CB         3.5830   18.2290   44.7000 C.3   145  HIS145      0.0771
    158  CG         3.0930   17.6070   43.4260 C.ar  145  HIS145      0.0820
    159  ND1        2.3980   18.3110   42.4670 N.ar  145  HIS145     -0.2267
    160  CD2        3.1930   16.3400   42.9620 C.ar  145  HIS145      0.1154
    161  CE1        2.0950   17.5060   41.4670 C.ar  145  HIS145      0.1986
    162  NE2        2.5640   16.3030   41.7440 N.ar  145  HIS145     -0.2212
    163  N          2.0480    9.2930   42.7030 N.3   163  ILE163     -0.1231
    164  CA         2.0920   10.7310   42.5250 C.3   163  ILE163      0.1692
    165  C          3.0950   11.0350   41.4130 C.2   163  ILE163      0.2592
    166  O          4.1870   10.4950   41.4000 O.2   163  ILE163     -0.2718
    167  CB         2.5510   11.4700   43.8230 C.3   163  ILE163      0.0266
    168  CG1        1.5750   11.2080   44.9890 C.3   163  ILE163      0.0019
    169  CG2        2.7220   12.9760   43.5540 C.3   163  ILE163      0.0020
    170  CD1        2.1260   11.5740   46.3710 C.3   163  ILE163      0.0001
    171  N          2.7050   11.9200   40.5080 N.am  164  LEU164     -0.1966
    172  CA         3.5440   12.3770   39.3950 C.3   164  LEU164      0.1728
    173  C          3.1690   13.8210   39.1050 C.2   164  LEU164      0.2616
    174  O          2.3330   14.3990   39.8180 O.2   164  LEU164     -0.2715
    175  CB         3.3230   11.4930   38.1510 C.3   164  LEU164      0.0311
    176  CG         1.9190   11.4690   37.5190 C.3   164  LEU164      0.0022
    177  CD1        2.0130   11.4200   36.0070 C.3   164  LEU164      0.0001
    178  CD2        1.1480   10.2830   38.0230 C.3   164  LEU164      0.0001
    179  N          3.8020   14.4090   38.0910 N.am  165  ASP165     -0.1957
    180  CA         3.4120   15.7210   37.5820 C.3   165  ASP165      0.1840
    181  C          3.6410   15.7380   36.0710 C.2   165  ASP165      0.2622
    182  O          4.7500   15.9330   35.6160 O.2   165  ASP165     -0.2715
    183  CB         4.1730   16.8560   38.2960 C.3   165  ASP165      0.1450
    184  CG         3.6240   18.2370   37.9630 C.2   165  ASP165      0.3671
    185  OD1        2.8870   18.3680   36.9690 O.co2 165  ASP165     -0.2456
    186  OD2        3.9050   19.2050   38.6990 O.co2 165  ASP165     -0.2456
    187  N          2.5810   15.5310   35.2980 N.am  166  PHE166     -0.1960
    188  CA         2.7120   15.4690   33.8420 C.3   166  PHE166      0.1771
    189  C          3.4990   16.6630   33.3000 C.2   166  PHE166      0.2620
    190  O          4.3900   16.4870   32.4550 O.2   166  PHE166     -0.2715
    191  CB         1.3440   15.3480   33.1610 C.3   166  PHE166      0.0574
    192  CG         0.8180   13.9500   33.1290 C.ar  166  PHE166     -0.0200
    193  CD1        1.3310   13.0340   32.2300 C.ar  166  PHE166     -0.0042
    194  CD2       -0.1830   13.5420   34.0080 C.ar  166  PHE166     -0.0042
    195  CE1        0.8430   11.7320   32.1820 C.ar  166  PHE166     -0.0003
    196  CE2       -0.6790   12.2490   33.9660 C.ar  166  PHE166     -0.0003
    197  CZ        -0.1630   11.3360   33.0520 C.ar  166  PHE166     -0.0000
    198  N          3.2020   17.8440   33.8420 N.am  167  GLY167     -0.1954
    199  CA         3.9960   19.0490   33.6190 C.3   167  GLY167      0.1869
    200  C          3.9820   19.5690   32.1930 C.2   167  GLY167      0.2309
    201  O          4.9450   20.1960   31.7500 O.2   167  GLY167     -0.2863
@<TRIPOS>BOND
     1     4     3    2
     2     3     2    1
     3     1     2    1
     4    18    17    1
     5     2     5    1
     6    17    19    1
     7    17    14    1
     8    16    15    2
     9    22    23    2
    10    22    21    1
    11    15    14    1
    12    15    20   am
    13     5     6    1
    14     5     7    1
    15    14    13    1
    16    21    20    1
    17    21    24    1
    18    13    10   am
    19   121   119    1
    20   107   108    1
    21    25    24    1
    22    25    26    1
    23    10     9    1
    24    10    11    2
    25     9     8    1
    26     9    12    1
    27   110   109    2
    28   120   119    1
    29   119   116    1
    30    26    27    1
    31   108   109    1
    32   108   111    1
    33   109   115   am
    34   116   115    1
    35   116   117    1
    36   111   112    1
    37   112   113    1
    38   112   114    1
    39    27    28    1
    40   201   200    2
    41   125   124    2
    42   117   122   am
    43   117   118    2
    44   122   123    1
    45   195   193   ar
    46   195   197   ar
    47   200   199    1
    48   193   192   ar
    49   190   189    2
    50    35    36    1
    51    35    34    1
    52    58    57   ar
    53    36    37    2
    54   124   123    1
    55   197   196   ar
    56   192   191    1
    57   192   194   ar
    58   191   188    1
    59    33    34    1
    60    33    30    1
    61   123   126    1
    62   189   188    1
    63   189   198   am
    64    31    30    1
    65    31    32    2
    66   199   198    1
    67   128   126    1
    68    57    59   ar
    69    57    56    1
    70    37    39    1
    71    37    38    1
    72    29    30    1
    73   106   104    1
    74   188   187    1
    75   196   194   ar
    76   126   127    1
    77    55    56    1
    78    55    52    1
    79   105   104    1
    80   104   103    1
    81    75    73    1
    82   187   181   am
    83   101   100    1
    84   101   102    2
    85   182   181    2
    86   103   100    1
    87   100    99    1
    88    52    53    1
    89    52    51    1
    90   177   176    1
    91    53    54    2
    92   181   180    1
    93    40    41    1
    94    51    42   am
    95    98    96    1
    96    73    72    1
    97    73    74    1
    98    49    48    1
    99   185   184   ar
   100    72    69    1
   101    42    41    1
   102    42    43    2
   103    41    44    1
   104    96    95    1
   105   176   178    1
   106   176   175    1
   107    44    45    1
   108   180   179    1
   109   180   183    1
   110   184   183    1
   111   184   186   ar
   112    48    50    1
   113    48    47    2
   114   179   173   am
   115   175   172    1
   116    69    70    1
   117    69    68    1
   118    95    97    1
   119    95    92    1
   120    70    71    2
   121    45    46    1
   122    68    62   am
   123    46    47    1
   124   173   172    1
   125   173   174    2
   126   172   171    1
   127    60    61    1
   128    92    93    1
   129    92    91    1
   130    93    94    2
   131    62    61    1
   132    62    63    2
   133    64    61    1
   134    64    65    1
   135   171   165   am
   136    67    65    1
   137    91    86   am
   138    65    66    1
   139   166   165    2
   140   165   164    1
   141   161   162   ar
   142   161   159   ar
   143   162   160   ar
   144    79    78    2
   145    87    86    2
   146    86    85    1
   147    80    81    1
   148    80    77    1
   149   159   158   ar
   150   164   163    1
   151   164   167    1
   152    76    77    1
   153   156   155    2
   154   160   158   ar
   155    81    82    1
   156    78    77    1
   157    89    88    1
   158    85    88    1
   159    85    84    1
   160   158   157    1
   161   169   167    1
   162   167   168    1
   163   155   154    1
   164    82    83    1
   165    88    90    1
   166   154   157    1
   167   154   153    1
   168   148   147    2
   169   168   170    1
   170   143   141    1
   171   153   147   am
   172   147   146    1
   173   144   142    1
   174   136   134    1
   175   142   141    1
   176   141   138    1
   177   134   133    1
   178   145   146    1
   179   145   139   am
   180   146   149    1
   181   135   133    1
   182   138   139    1
   183   138   137    1
   184   149   151    1
   185   149   150    1
   186   139   140    2
   187   133   130    1
   188   130   129    1
   189   130   131    1
   190   150   152    1
   191   132   131    2
