@<TRIPOS>MOLECULE
tmp/1w83A00.pdb
 230 221 0 0 0
SMALL
GASTEIGER

@<TRIPOS>ATOM
      1  N         -0.8600    9.8870   22.8330 N.3    27  VAL27      -0.1245
      2  CA        -1.7600    9.9550   23.9930 C.3    27  VAL27       0.1561
      3  C         -2.1080   11.4280   24.3310 C.2    27  VAL27       0.2260
      4  O         -3.2190   11.7350   24.7900 O.2    27  VAL27      -0.2867
      5  CB        -1.1240    9.1890   25.1990 C.3    27  VAL27       0.0252
      6  CG1       -1.7780    9.5260   26.5440 C.3    27  VAL27       0.0019
      7  CG2       -1.1700    7.6830   24.9370 C.3    27  VAL27       0.0019
      8  N          3.2330   12.9640   24.3900 N.3    35  VAL35      -0.1245
      9  CA         3.3250   11.6470   25.0380 C.3    35  VAL35       0.1561
     10  C          2.8420   10.5030   24.1170 C.2    35  VAL35       0.2260
     11  O          1.8270   10.6490   23.3970 O.2    35  VAL35      -0.2867
     12  CB         2.5630   11.5910   26.4420 C.3    35  VAL35       0.0252
     13  CG1        2.7970   10.2740   27.1600 C.3    35  VAL35       0.0019
     14  CG2        2.9900   12.7290   27.3830 C.3    35  VAL35       0.0019
     15  N          4.6980    4.9890   29.1690 N.3    48  ALA48      -0.1231
     16  CA         4.4460    6.2640   28.5020 C.3    48  ALA48       0.1694
     17  C          5.7840    6.8920   28.1660 C.2    48  ALA48       0.2592
     18  O          6.7460    6.7740   28.9350 O.2    48  ALA48      -0.2718
     19  CB         3.5970    7.1700   29.3300 C.3    48  ALA48       0.0304
     20  N          5.8740    7.5130   26.9930 N.am   49  VAL49      -0.1966
     21  CA         7.1340    8.0830   26.5630 C.3    49  VAL49       0.1727
     22  C          6.9020    9.5350   26.2550 C.2    49  VAL49       0.2616
     23  O          6.1690    9.8720   25.3260 O.2    49  VAL49      -0.2715
     24  CB         7.8010    7.2820   25.3860 C.3    49  VAL49       0.0290
     25  CG1        9.0370    7.9600   24.8840 C.3    49  VAL49       0.0023
     26  CG2        8.2110    5.8960   25.8800 C.3    49  VAL49       0.0023
     27  N          7.5050   10.3980   27.0600 N.am   50  LYS50      -0.1977
     28  CA         7.3360   11.8320   26.8800 C.3    50  LYS50       0.1596
     29  C          8.5250   12.4090   26.1440 C.2    50  LYS50       0.2287
     30  O          9.6630   12.2590   26.5950 O.2    50  LYS50      -0.2864
     31  CB         7.1680   12.5220   28.2260 C.3    50  LYS50       0.0298
     32  CG         6.7710   13.9740   28.0830 C.3    50  LYS50       0.0038
     33  CD         6.1590   14.5470   29.3270 C.3    50  LYS50       0.0206
     34  CE         7.2030   15.0340   30.2700 C.3    50  LYS50       0.1093
     35  NZ         6.5800   16.0520   31.1610 N.3    50  LYS50      -0.1314
     36  N         15.1660   20.5300   35.8060 N.3    67  ARG67      -0.1231
     37  CA        14.3460   20.3290   37.0200 C.3    67  ARG67       0.1694
     38  C         13.5190   19.0300   36.9540 C.2    67  ARG67       0.2591
     39  O         13.5650   18.2270   37.8870 O.2    67  ARG67      -0.2718
     40  CB        13.4390   21.5380   37.2640 C.3    67  ARG67       0.0321
     41  CG        12.5390   21.4590   38.4790 C.3    67  ARG67       0.0489
     42  CD        11.5400   22.6280   38.4870 C.3    67  ARG67       0.2205
     43  NE        12.1650   23.8800   38.9020 N.pl3  67  ARG67      -0.0865
     44  CZ        12.4360   24.9220   38.1040 C.cat  67  ARG67       0.5346
     45  NH1       12.1460   24.9110   36.7960 N.pl3  67  ARG67       0.1354
     46  NH2       13.0260   25.9910   38.6230 N.pl3  67  ARG67       0.1354
     47  N         12.7850   18.8200   35.8600 N.am   68  GLU68      -0.1979
     48  CA        12.0240   17.5830   35.7280 C.3    68  GLU68       0.1602
     49  C         12.8960   16.2960   35.7500 C.2    68  GLU68       0.2287
     50  O         12.5490   15.3290   36.4330 O.2    68  GLU68      -0.2864
     51  CB        11.1310   17.6080   34.5060 C.3    68  GLU68       0.0415
     52  CG         9.9940   16.6680   34.6450 C.3    68  GLU68       0.1163
     53  CD         9.3180   16.4260   33.3400 C.2    68  GLU68       0.3649
     54  OE1        9.9120   16.8190   32.3220 O.co2  68  GLU68      -0.2457
     55  OE2        8.2040   15.8590   33.3160 O.co2  68  GLU68      -0.2457
     56  N         14.2210   15.5810   39.5070 N.3    71  LEU71      -0.1231
     57  CA        13.0250   15.1420   40.2270 C.3    71  LEU71       0.1693
     58  C         12.7640   13.6820   39.9350 C.2    71  LEU71       0.2591
     59  O         12.8290   12.8550   40.8300 O.2    71  LEU71      -0.2718
     60  CB        11.8030   15.9980   39.8030 C.3    71  LEU71       0.0284
     61  CG        11.1340   17.0450   40.7260 C.3    71  LEU71       0.0019
     62  CD1       11.8820   17.2960   42.0510 C.3    71  LEU71       0.0001
     63  CD2       10.7710   18.3680   39.9940 C.3    71  LEU71       0.0001
     64  N         12.5600   13.3790   38.6670 N.am   72  LEU72      -0.1980
     65  CA        12.1510   12.0590   38.2360 C.3    72  LEU72       0.1596
     66  C         13.2200   10.9940   38.4620 C.2    72  LEU72       0.2287
     67  O         12.8690    9.8390   38.7330 O.2    72  LEU72      -0.2864
     68  CB        11.7420   12.0980   36.7650 C.3    72  LEU72       0.0297
     69  CG        10.2840   12.3090   36.3780 C.3    72  LEU72       0.0022
     70  CD1        9.3910   12.9480   37.4260 C.3    72  LEU72       0.0001
     71  CD2       10.2650   13.1020   35.0930 C.3    72  LEU72       0.0001
     72  N         12.7920   10.3440   42.4790 N.3    75  MET75      -0.1245
     73  CA        11.5700    9.7470   43.0600 C.3    75  MET75       0.1570
     74  C         11.5700    8.2430   42.9100 C.2    75  MET75       0.2261
     75  O         11.4800    7.7320   41.7990 O.2    75  MET75      -0.2867
     76  CB        10.2710   10.3030   42.4360 C.3    75  MET75       0.0387
     77  CG        10.1350   11.8120   42.2420 C.3    75  MET75       0.0595
     78  SD         9.5710   12.6870   43.7080 S.3    75  MET75      -0.1393
     79  CE        11.0590   12.6390   44.6900 C.3    75  MET75       0.0692
     80  N          4.6120    7.2350   44.2440 N.3    80  VAL80      -0.1231
     81  CA         5.1240    8.3570   43.4630 C.3    80  VAL80       0.1692
     82  C          5.6270    7.7510   42.1670 C.2    80  VAL80       0.2591
     83  O          6.0570    6.6020   42.1660 O.2    80  VAL80      -0.2718
     84  CB         6.2390    9.1810   44.2010 C.3    80  VAL80       0.0266
     85  CG1        6.5610   10.4940   43.4320 C.3    80  VAL80       0.0020
     86  CG2        5.8260    9.5300   45.6280 C.3    80  VAL80       0.0020
     87  N          5.4730    8.4870   41.0640 N.am   81  ILE81      -0.1980
     88  CA         5.9390    8.0810   39.7740 C.3    81  ILE81       0.1595
     89  C          7.4530    7.9190   39.8000 C.2    81  ILE81       0.2287
     90  O          8.1600    8.7840   40.3200 O.2    81  ILE81      -0.2864
     91  CB         5.5220    9.1040   38.7020 C.3    81  ILE81       0.0276
     92  CG1        5.8340    8.5540   37.3060 C.3    81  ILE81       0.0022
     93  CG2        6.1500   10.5360   38.9600 C.3    81  ILE81       0.0022
     94  CD1        5.4350    9.4740   36.1520 C.3    81  ILE81       0.0001
     95  N         11.0420    6.9110   37.3120 N.3    83  LEU83      -0.1245
     96  CA        11.5760    6.9960   35.9400 C.3    83  LEU83       0.1561
     97  C         12.0040    5.6080   35.5330 C.2    83  LEU83       0.2260
     98  O         12.9330    5.0640   36.1480 O.2    83  LEU83      -0.2867
     99  CB        12.8540    7.8650   35.8860 C.3    83  LEU83       0.0270
    100  CG        13.0280    9.1160   34.9820 C.3    83  LEU83       0.0019
    101  CD1       14.4970    9.4060   34.6970 C.3    83  LEU83       0.0001
    102  CD2       12.1790    9.1940   33.6790 C.3    83  LEU83       0.0001
    103  N         11.4620   11.0590   28.1540 N.3   101  LEU101     -0.1231
    104  CA        11.3200   10.4220   29.4560 C.3   101  LEU101      0.1693
    105  C         10.3640    9.2420   29.3810 C.2   101  LEU101      0.2592
    106  O          9.3200    9.3490   28.7200 O.2   101  LEU101     -0.2718
    107  CB        10.8450   11.4500   30.4960 C.3   101  LEU101      0.0284
    108  CG        11.7030   12.7180   30.5100 C.3   101  LEU101      0.0019
    109  CD1       10.8670   13.9530   30.8020 C.3   101  LEU101      0.0001
    110  CD2       12.8920   12.5620   31.4390 C.3   101  LEU101      0.0001
    111  N         10.7330    8.1260   30.0390 N.am  102  VAL102     -0.1966
    112  CA         9.9050    6.8900   30.0630 C.3   102  VAL102      0.1727
    113  C          9.4170    6.5160   31.4770 C.2   102  VAL102      0.2617
    114  O         10.2340    6.3500   32.3990 O.2   102  VAL102     -0.2715
    115  CB        10.6410    5.6680   29.4350 C.3   102  VAL102      0.0290
    116  CG1        9.6980    4.5340   29.1880 C.3   102  VAL102      0.0023
    117  CG2       11.2910    6.0260   28.1260 C.3   102  VAL102      0.0023
    118  N          8.0930    6.3840   31.6370 N.am  103  THR103     -0.1937
    119  CA         7.4830    5.8820   32.8720 C.3   103  THR103      0.2028
    120  C          6.5250    4.7240   32.6210 C.2   103  THR103      0.2642
    121  O          6.2530    4.3840   31.4580 O.2   103  THR103     -0.2714
    122  CB         6.7150    6.9840   33.6430 C.3   103  THR103      0.1808
    123  OG1        6.3020    6.4590   34.9020 O.3   103  THR103     -0.2208
    124  CG2        5.4710    7.4450   32.9180 C.3   103  THR103      0.0379
    125  N          6.0070    4.1200   33.6970 N.am  104  HIS104     -0.1959
    126  CA         4.9240    3.1570   33.5760 C.3   104  HIS104      0.1787
    127  C          3.7300    3.9070   33.0260 C.2   104  HIS104      0.2620
    128  O          3.4660    5.0580   33.4380 O.2   104  HIS104     -0.2715
    129  CB         4.5390    2.5390   34.9250 C.3   104  HIS104      0.0785
    130  CG         5.5450    1.5780   35.4750 C.ar  104  HIS104      0.0821
    131  ND1        6.2710    1.8380   36.6160 N.ar  104  HIS104     -0.2267
    132  CD2        5.9270    0.3470   35.0610 C.ar  104  HIS104      0.1154
    133  CE1        7.0650    0.8140   36.8770 C.ar  104  HIS104      0.1986
    134  NE2        6.8680   -0.1060   35.9520 N.ar  104  HIS104     -0.2212
    135  N          3.0420    3.2740   32.0750 N.am  105  LEU105     -0.1963
    136  CA         1.8370    3.8220   31.4860 C.3   105  LEU105      0.1728
    137  C          0.7380    3.8180   32.5460 C.2   105  LEU105      0.2616
    138  O          0.4370    2.7700   33.1380 O.2   105  LEU105     -0.2715
    139  CB         1.4070    3.0020   30.2450 C.3   105  LEU105      0.0311
    140  CG         0.1910    3.4020   29.3670 C.3   105  LEU105      0.0022
    141  CD1        0.4370    4.7130   28.6330 C.3   105  LEU105      0.0001
    142  CD2       -0.1600    2.3090   28.3680 C.3   105  LEU105      0.0001
    143  N          0.1960    5.0030   32.8040 N.am  106  MET106     -0.1977
    144  CA        -1.0010    5.1710   33.6330 C.3   106  MET106      0.1605
    145  C         -2.2180    5.1780   32.7330 C.2   106  MET106      0.2287
    146  O         -2.1230    5.4340   31.5460 O.2   106  MET106     -0.2864
    147  CB        -0.9680    6.4940   34.3920 C.3   106  MET106      0.0413
    148  CG         0.3420    6.8040   35.0910 C.3   106  MET106      0.0598
    149  SD         0.8270    5.6150   36.3490 S.3   106  MET106     -0.1393
    150  CE         2.4420    6.2630   36.8030 C.3   106  MET106      0.0692
    151  N          7.5400   12.8620   49.2300 N.3   138  ILE138     -0.1245
    152  CA         7.8410   14.0290   48.3980 C.3   138  ILE138      0.1561
    153  C          8.3220   15.1820   49.3010 C.2   138  ILE138      0.2260
    154  O          9.3270   15.8320   49.0070 O.2   138  ILE138     -0.2867
    155  CB         6.5990   14.4380   47.5270 C.3   138  ILE138      0.0252
    156  CG1        6.2830   13.3410   46.5220 C.3   138  ILE138      0.0019
    157  CG2        6.8720   15.5900   46.6270 C.3   138  ILE138      0.0019
    158  CD1        4.7840   13.1940   46.2490 C.3   138  ILE138      0.0001
    159  N         10.3410   18.6010   48.2240 N.3   143  ILE143     -0.1231
    160  CA         9.6620   18.8030   46.9460 C.3   143  ILE143      0.1692
    161  C          8.1680   19.0650   47.1660 C.2   143  ILE143      0.2592
    162  O          7.5110   18.3450   47.9200 O.2   143  ILE143     -0.2718
    163  CB         9.8880   17.6400   45.9900 C.3   143  ILE143      0.0266
    164  CG1       11.3760   17.4040   45.8480 C.3   143  ILE143      0.0019
    165  CG2        9.2000   17.9090   44.6290 C.3   143  ILE143      0.0020
    166  CD1       11.7330   15.9800   45.6970 C.3   143  ILE143      0.0001
    167  N          7.6600   20.1290   46.5460 N.am  144  ILE144     -0.1966
    168  CA         6.2480   20.4780   46.6520 C.3   144  ILE144      0.1727
    169  C          5.6180   20.1790   45.3050 C.2   144  ILE144      0.2616
    170  O          6.0710   20.6590   44.2760 O.2   144  ILE144     -0.2715
    171  CB         6.0100   21.9720   46.9800 C.3   144  ILE144      0.0290
    172  CG1        6.7420   22.4150   48.2500 C.3   144  ILE144      0.0022
    173  CG2        4.5270   22.2690   47.1550 C.3   144  ILE144      0.0023
    174  CD1        6.8260   23.9690   48.3590 C.3   144  ILE144      0.0001
    175  N          4.5610   19.3800   45.3210 N.am  145  HIS145     -0.1959
    176  CA         3.8140   19.1330   44.1200 C.3   145  HIS145      0.1787
    177  C          3.2780   20.4200   43.4920 C.2   145  HIS145      0.2620
    178  O          3.5260   20.6650   42.3240 O.2   145  HIS145     -0.2715
    179  CB         2.6790   18.1640   44.3890 C.3   145  HIS145      0.0785
    180  CG         2.1620   17.5310   43.1440 C.ar  145  HIS145      0.0821
    181  ND1        1.3770   18.2070   42.2380 N.ar  145  HIS145     -0.2267
    182  CD2        2.3670   16.3040   42.6220 C.ar  145  HIS145      0.1154
    183  CE1        1.0860   17.4100   41.2290 C.ar  145  HIS145      0.1986
    184  NE2        1.6650   16.2430   41.4420 N.ar  145  HIS145     -0.2212
    185  N          2.5430   21.1980   44.2840 N.am  146  ARG146     -0.1977
    186  CA         1.9020   22.4750   43.8800 C.3   146  ARG146      0.1597
    187  C          0.6110   22.3520   43.0530 C.2   146  ARG146      0.2287
    188  O         -0.1050   23.3340   42.8880 O.2   146  ARG146     -0.2864
    189  CB         2.8780   23.4150   43.1450 C.3   146  ARG146      0.0334
    190  CG         3.6840   24.3700   43.9830 C.3   146  ARG146      0.0492
    191  CD         4.7710   24.9980   43.1010 C.3   146  ARG146      0.2205
    192  NE         5.9120   24.0900   42.8930 N.pl3 146  ARG146     -0.0865
    193  CZ         6.1850   23.4440   41.7560 C.cat 146  ARG146      0.5346
    194  NH1        5.4130   23.6010   40.6830 N.pl3 146  ARG146      0.1354
    195  NH2        7.2420   22.6380   41.6870 N.pl3 146  ARG146      0.1354
    196  N          1.1550    9.2860   42.6170 N.3   163  ILE163     -0.1231
    197  CA         1.2670   10.6990   42.3560 C.3   163  ILE163      0.1692
    198  C          2.2210   10.9740   41.1560 C.2   163  ILE163      0.2592
    199  O          3.3690   10.4880   41.1250 O.2   163  ILE163     -0.2718
    200  CB         1.7600   11.4820   43.6440 C.3   163  ILE163      0.0266
    201  CG1        0.8970   11.1270   44.8720 C.3   163  ILE163      0.0019
    202  CG2        1.7960   12.9770   43.3710 C.3   163  ILE163      0.0020
    203  CD1        1.5500   11.4100   46.2230 C.3   163  ILE163      0.0001
    204  N          1.7130   11.7350   40.1830 N.am  164  LEU164     -0.1966
    205  CA         2.5070   12.2930   39.1030 C.3   164  LEU164      0.1728
    206  C          2.0610   13.7020   38.7220 C.2   164  LEU164      0.2616
    207  O          1.1900   14.2970   39.3740 O.2   164  LEU164     -0.2715
    208  CB         2.5870   11.3880   37.8670 C.3   164  LEU164      0.0311
    209  CG         1.5450   10.5340   37.1340 C.3   164  LEU164      0.0022
    210  CD1        0.1050   10.6210   37.6790 C.3   164  LEU164      0.0001
    211  CD2        1.5870   10.8140   35.6290 C.3   164  LEU164      0.0001
    212  N          2.7180   14.2600   37.7110 N.am  165  ASP165     -0.1957
    213  CA         2.2530   15.4760   37.0990 C.3   165  ASP165      0.1840
    214  C          2.1480   15.2100   35.6130 C.2   165  ASP165      0.2622
    215  O          3.1580   15.1070   34.9180 O.2   165  ASP165     -0.2715
    216  CB         3.1590   16.6690   37.3940 C.3   165  ASP165      0.1450
    217  CG         2.4710   18.0090   37.1230 C.2   165  ASP165      0.3671
    218  OD1        1.7060   18.1160   36.1320 O.co2 165  ASP165     -0.2456
    219  OD2        2.6970   18.9680   37.9130 O.co2 165  ASP165     -0.2456
    220  N          0.8950   15.1170   35.1580 N.am  166  PHE166     -0.1974
    221  CA         0.5140   14.8430   33.7760 C.3   166  PHE166      0.1639
    222  C          0.6700   16.0710   32.8960 C.2   166  PHE166      0.2290
    223  O          0.7140   15.9380   31.6670 O.2   166  PHE166     -0.2864
    224  CB        -0.9590   14.4280   33.7190 C.3   166  PHE166      0.0560
    225  CG        -1.2070   12.9410   33.7810 C.ar  166  PHE166     -0.0200
    226  CD1       -0.7700   12.0860   32.7640 C.ar  166  PHE166     -0.0042
    227  CD2       -1.9230   12.3960   34.8260 C.ar  166  PHE166     -0.0042
    228  CE1       -1.0490   10.7040   32.8220 C.ar  166  PHE166     -0.0003
    229  CE2       -2.2030   11.0390   34.8800 C.ar  166  PHE166     -0.0003
    230  CZ        -1.7710   10.1930   33.8840 C.ar  166  PHE166     -0.0000
@<TRIPOS>BOND
     1     1     2    1
     2    11    10    2
     3     2     3    1
     4     2     5    1
     5    10     9    1
     6     3     4    2
     7     8     9    1
     8    25    24    1
     9     7     5    1
    10     9    12    1
    11     5     6    1
    12    23    22    2
    13    24    26    1
    14    24    21    1
    15    29    30    2
    16    29    28    1
    17    22    21    1
    18    22    27   am
    19    12    13    1
    20    12    14    1
    21    21    20    1
    22    28    27    1
    23    28    31    1
    24    20    17   am
    25    32    31    1
    26    32    33    1
    27   117   115    1
    28   103   104    1
    29    17    16    1
    30    17    18    2
    31   142   140    1
    32    16    15    1
    33    16    19    1
    34   141   140    1
    35   106   105    2
    36   116   115    1
    37    33    34    1
    38   140   139    1
    39   105   104    1
    40   105   111   am
    41   115   112    1
    42   104   107    1
    43   111   112    1
    44   112   113    1
    45   139   136    1
    46    34    35    1
    47   107   108    1
    48   108   109    1
    49   108   110    1
    50   121   120    2
    51   113   118   am
    52   113   114    2
    53   136   135    1
    54   136   137    1
    55   146   145    2
    56   118   119    1
    57   223   222    2
    58   135   127   am
    59    54    53   ar
    60   137   143   am
    61   137   138    2
    62   120   119    1
    63   120   125   am
    64   145   144    1
    65   226   228   ar
    66   226   225   ar
    67   143   144    1
    68   228   230   ar
    69   119   122    1
    70   222   221    1
    71   124   122    1
    72   127   128    2
    73   127   126    1
    74    55    53   ar
    75    53    52    1
    76   126   125    1
    77   126   129    1
    78   144   147    1
    79   122   123    1
    80   102   100    1
    81   224   221    1
    82   224   225    1
    83   221   220    1
    84   225   227   ar
    85   230   229   ar
    86   147   148    1
    87    51    52    1
    88    51    48    1
    89   101   100    1
    90   227   229   ar
    91   215   214    2
    92   129   130    1
    93   100    99    1
    94   132   130   ar
    95   132   134   ar
    96   148   149    1
    97    71    69    1
    98   220   214   am
    99   130   131   ar
   100    97    96    1
   101    97    98    2
   102   214   213    1
   103   211   209    1
   104    48    49    1
   105    48    47    1
   106    49    50    2
   107    36    37    1
   108    47    38   am
   109    99    96    1
   110    96    95    1
   111   134   133   ar
   112   218   217   ar
   113    94    92    1
   114   149   150    1
   115    69    68    1
   116    69    70    1
   117   131   133   ar
   118    68    65    1
   119    45    44    1
   120    38    37    1
   121    38    39    2
   122    37    40    1
   123   213   216    1
   124   213   212    1
   125   217   216    1
   126   217   219   ar
   127   209   210    1
   128   209   208    1
   129    40    41    1
   130    92    91    1
   131   212   206   am
   132   208   205    1
   133    44    46    1
   134    44    43    2
   135    65    66    1
   136    65    64    1
   137    66    67    2
   138    41    42    1
   139    42    43    1
   140    64    58   am
   141    91    93    1
   142    91    88    1
   143   206   205    1
   144   206   207    2
   145   205   204    1
   146    56    57    1
   147    88    89    1
   148    88    87    1
   149    89    90    2
   150    60    57    1
   151    60    61    1
   152    58    57    1
   153    58    59    2
   154    63    61    1
   155   204   198   am
   156   194   193    1
   157    61    62    1
   158    87    82   am
   159   199   198    2
   160   198   197    1
   161   183   184   ar
   162   183   181   ar
   163   184   182   ar
   164   195   193    1
   165   193   192    2
   166    75    74    2
   167    83    82    2
   168    82    81    1
   169   181   180   ar
   170    77    76    1
   171    77    78    1
   172   178   177    2
   173   197   196    1
   174   197   200    1
   175    76    73    1
   176    72    73    1
   177   182   180   ar
   178   188   187    2
   179   192   191    1
   180    74    73    1
   181   187   186    1
   182   191   190    1
   183   180   179    1
   184   189   186    1
   185   189   190    1
   186   202   200    1
   187    85    84    1
   188    81    84    1
   189    81    80    1
   190   177   176    1
   191   177   185   am
   192   200   201    1
   193    78    79    1
   194   186   185    1
   195   176   179    1
   196   176   175    1
   197    84    86    1
   198   170   169    2
   199   165   163    1
   200   201   203    1
   201   169   175   am
   202   169   168    1
   203   166   164    1
   204   164   163    1
   205   163   160    1
   206   158   156    1
   207   156   155    1
   208   167   168    1
   209   167   161   am
   210   157   155    1
   211   168   171    1
   212   160   161    1
   213   160   159    1
   214   171   173    1
   215   171   172    1
   216   161   162    2
   217   155   152    1
   218   172   174    1
   219   152   151    1
   220   152   153    1
   221   154   153    2
