@<TRIPOS>MOLECULE
tmp/1w84A00.pdb
 129 121 0 0 0
SMALL
GASTEIGER

@<TRIPOS>ATOM
      1  N         -1.1090   10.4360   21.1510 N.3    27  VAL27      -0.1245
      2  CA        -2.0230   10.5130   22.3040 C.3    27  VAL27       0.1561
      3  C         -2.1630   11.9920   22.7260 C.2    27  VAL27       0.2260
      4  O         -1.2100   12.7610   22.6010 O.2    27  VAL27      -0.2867
      5  CB        -1.4980    9.6020   23.4580 C.3    27  VAL27       0.0252
      6  CG1       -2.1040    9.9460   24.8510 C.3    27  VAL27       0.0019
      7  CG2       -1.7390    8.1380   23.1100 C.3    27  VAL27       0.0019
      8  N          3.0900   13.7730   22.5880 N.3    35  VAL35      -0.1245
      9  CA         3.0580   12.5230   23.3630 C.3    35  VAL35       0.1561
     10  C          2.6100   11.3460   22.4750 C.2    35  VAL35       0.2260
     11  O          1.5720   11.4420   21.8180 O.2    35  VAL35      -0.2867
     12  CB         2.1130   12.6250   24.6090 C.3    35  VAL35       0.0252
     13  CG1        2.0650   11.3040   25.3870 C.3    35  VAL35       0.0019
     14  CG2        2.5490   13.7860   25.5260 C.3    35  VAL35       0.0019
     15  N          4.4020    5.8870   27.7730 N.3    48  ALA48      -0.1245
     16  CA         4.0950    7.1580   27.1360 C.3    48  ALA48       0.1562
     17  C          5.4400    7.8220   26.8830 C.2    48  ALA48       0.2260
     18  O          6.2590    7.8660   27.7870 O.2    48  ALA48      -0.2867
     19  CB         3.2280    8.0210   28.0390 C.3    48  ALA48       0.0290
     20  N          7.1920   11.3750   25.6590 N.3    50  LYS50      -0.1245
     21  CA         7.0080   12.8120   25.4050 C.3    50  LYS50       0.1561
     22  C          8.2510   13.3800   24.7360 C.2    50  LYS50       0.2260
     23  O          9.3260   13.2680   25.3040 O.2    50  LYS50      -0.2867
     24  CB         6.7360   13.5890   26.7000 C.3    50  LYS50       0.0271
     25  CG         6.4900   15.1180   26.5020 C.3    50  LYS50       0.0035
     26  CD         5.8870   15.7790   27.7440 C.3    50  LYS50       0.0206
     27  CE         6.8780   15.8180   28.9130 C.3    50  LYS50       0.1093
     28  NZ         6.3900   16.7100   30.0350 N.3    50  LYS50      -0.1314
     29  N         12.6060   20.1720   34.9010 N.3    68  GLU68      -0.1245
     30  CA        11.7720   18.9900   34.6780 C.3    68  GLU68       0.1567
     31  C         12.5820   17.6980   34.7570 C.2    68  GLU68       0.2260
     32  O         12.1720   16.7750   35.4510 O.2    68  GLU68      -0.2867
     33  CB        10.9980   19.0510   33.3510 C.3    68  GLU68       0.0388
     34  CG        10.0980   17.8010   33.1570 C.3    68  GLU68       0.1160
     35  CD         9.0600   17.9020   32.0620 C.2    68  GLU68       0.3649
     36  OE1        9.1980   18.7980   31.1960 O.co2  68  GLU68      -0.2457
     37  OE2        8.1350   17.0360   32.0600 O.co2  68  GLU68      -0.2457
     38  N         12.2300   14.7970   37.6180 N.3    72  LEU72      -0.1245
     39  CA        11.8020   13.4450   37.1930 C.3    72  LEU72       0.1561
     40  C         12.8230   12.3180   37.4580 C.2    72  LEU72       0.2260
     41  O         12.4310   11.1920   37.7920 O.2    72  LEU72      -0.2867
     42  CB        11.4280   13.4490   35.7080 C.3    72  LEU72       0.0270
     43  CG         9.9890   13.5140   35.1540 C.3    72  LEU72       0.0019
     44  CD1        8.8750   13.7670   36.1410 C.3    72  LEU72       0.0001
     45  CD2        9.9390   14.4840   34.0350 C.3    72  LEU72       0.0001
     46  N          4.9950    9.6620   39.6400 N.3    81  ILE81      -0.1231
     47  CA         5.5800    9.4370   38.3130 C.3    81  ILE81       0.1692
     48  C          7.1090    9.2180   38.3850 C.2    81  ILE81       0.2593
     49  O          7.8070   10.0070   39.0170 O.2    81  ILE81      -0.2718
     50  CB         5.2200   10.6320   37.3430 C.3    81  ILE81       0.0266
     51  CG1        5.6260   10.3470   35.8880 C.3    81  ILE81       0.0019
     52  CG2        5.7990   11.9930   37.8130 C.3    81  ILE81       0.0020
     53  CD1        5.2770   11.4760   34.9350 C.3    81  ILE81       0.0001
     54  N          7.5910    8.1270   37.7840 N.am   82  GLY82      -0.1942
     55  CA         9.0260    7.8330   37.6290 C.3    82  GLY82       0.2014
     56  C          9.4710    7.8980   36.1710 C.2    82  GLY82       0.2638
     57  O          8.6360    7.7260   35.2540 O.2    82  GLY82      -0.2714
     58  N         10.7710    8.1460   35.9560 N.am   83  LEU83      -0.1977
     59  CA        11.3700    8.0920   34.5990 C.3    83  LEU83       0.1596
     60  C         11.8090    6.6820   34.3010 C.2    83  LEU83       0.2287
     61  O         12.6690    6.1600   34.9960 O.2    83  LEU83      -0.2864
     62  CB        12.6190    8.9750   34.4280 C.3    83  LEU83       0.0297
     63  CG        12.5720   10.2840   33.6730 C.3    83  LEU83       0.0022
     64  CD1       13.9990   10.7780   33.4970 C.3    83  LEU83       0.0001
     65  CD2       11.8000   10.2590   32.3530 C.3    83  LEU83       0.0001
     66  N         11.2680   11.8790   26.8310 N.3   101  LEU101     -0.1231
     67  CA        11.0840   11.3600   28.1890 C.3   101  LEU101      0.1693
     68  C         10.0790   10.2080   28.1530 C.2   101  LEU101      0.2592
     69  O          9.0070   10.3670   27.5640 O.2   101  LEU101     -0.2718
     70  CB        10.5360   12.4690   29.0890 C.3   101  LEU101      0.0284
     71  CG        11.3580   13.7570   29.2580 C.3   101  LEU101      0.0019
     72  CD1       10.5150   14.8450   29.8960 C.3   101  LEU101      0.0001
     73  CD2       12.5920   13.4860   30.0970 C.3   101  LEU101      0.0001
     74  N         10.4040    9.1030   28.8310 N.am  102  VAL102     -0.1966
     75  CA         9.5960    7.8900   28.8680 C.3   102  VAL102      0.1727
     76  C          9.1470    7.5780   30.3170 C.2   102  VAL102      0.2617
     77  O          9.9550    7.6080   31.2400 O.2   102  VAL102     -0.2715
     78  CB        10.3660    6.6760   28.2700 C.3   102  VAL102      0.0290
     79  CG1        9.4420    5.4630   28.1110 C.3   102  VAL102      0.0023
     80  CG2       10.9920    7.0470   26.9320 C.3   102  VAL102      0.0023
     81  N          7.8540    7.2800   30.4770 N.am  103  THR103     -0.1937
     82  CA         7.2590    6.8180   31.7380 C.3   103  THR103      0.2028
     83  C          6.1710    5.7790   31.4100 C.2   103  THR103      0.2642
     84  O          5.8560    5.5720   30.2420 O.2   103  THR103     -0.2714
     85  CB         6.6630    8.0140   32.5610 C.3   103  THR103      0.1808
     86  OG1        6.3560    7.5950   33.9010 O.3   103  THR103     -0.2208
     87  CG2        5.4100    8.6040   31.8870 C.3   103  THR103      0.0379
     88  N          5.6090    5.1620   32.4410 N.am  104  HIS104     -0.1959
     89  CA         4.5310    4.1570   32.3040 C.3   104  HIS104      0.1787
     90  C          3.2940    4.8150   31.6970 C.2   104  HIS104      0.2620
     91  O          2.9510    5.9240   32.0910 O.2   104  HIS104     -0.2715
     92  CB         4.1000    3.5780   33.6620 C.3   104  HIS104      0.0785
     93  CG         5.1930    2.9040   34.4370 C.ar  104  HIS104      0.0821
     94  ND1        6.0140    3.5880   35.3130 N.ar  104  HIS104     -0.2267
     95  CD2        5.5700    1.6040   34.5030 C.ar  104  HIS104      0.1154
     96  CE1        6.8610    2.7370   35.8700 C.ar  104  HIS104      0.1986
     97  NE2        6.6130    1.5270   35.3920 N.ar  104  HIS104     -0.2212
     98  N          2.6590    4.1550   30.7320 N.am  105  LEU105     -0.1963
     99  CA         1.4340    4.6680   30.0870 C.3   105  LEU105      0.1728
    100  C          0.2870    4.6710   31.0920 C.2   105  LEU105      0.2616
    101  O          0.0950    3.6580   31.7720 O.2   105  LEU105     -0.2715
    102  CB         1.0700    3.7760   28.8820 C.3   105  LEU105      0.0311
    103  CG        -0.1300    4.1260   28.0100 C.3   105  LEU105      0.0022
    104  CD1        0.0360    5.5030   27.4120 C.3   105  LEU105      0.0001
    105  CD2       -0.3070    3.0730   26.9300 C.3   105  LEU105      0.0001
    106  N         -0.4100    5.8070   31.2360 N.am  106  MET106     -0.1977
    107  CA        -1.6120    5.9340   32.1070 C.3   106  MET106      0.1605
    108  C         -2.8660    6.0250   31.2410 C.2   106  MET106      0.2287
    109  O         -2.8550    6.6920   30.2010 O.2   106  MET106     -0.2864
    110  CB        -1.5330    7.1470   33.0750 C.3   106  MET106      0.0413
    111  CG        -1.6820    8.6040   32.4860 C.3   106  MET106      0.0598
    112  SD        -3.0400    9.6340   33.1610 S.3   106  MET106     -0.1393
    113  CE        -3.2420   10.8600   31.8710 C.3   106  MET106      0.0692
    114  N          1.2560   12.9570   39.0370 N.3   164  LEU164     -0.1231
    115  CA         1.8910   13.4020   37.7920 C.3   164  LEU164      0.1693
    116  C          1.9020   14.9240   37.7660 C.2   164  LEU164      0.2592
    117  O          1.2980   15.5740   38.6270 O.2   164  LEU164     -0.2718
    118  CB         1.1000   12.8750   36.5710 C.3   164  LEU164      0.0284
    119  CG         1.3990   11.4550   36.0820 C.3   164  LEU164      0.0019
    120  CD1        0.6170   10.4170   36.8640 C.3   164  LEU164      0.0001
    121  CD2        1.1080   11.3010   34.5880 C.3   164  LEU164      0.0001
    122  N          2.6000   15.4720   36.7700 N.am  165  ASP165     -0.1974
    123  CA         2.3830   16.8310   36.2280 C.3   165  ASP165      0.1709
    124  C          2.6070   17.9140   37.2640 C.2   165  ASP165      0.2293
    125  O          1.7110   18.7050   37.6120 O.2   165  ASP165     -0.2864
    126  CB         1.0320   16.9470   35.4670 C.3   165  ASP165      0.1436
    127  CG         1.1990   16.7610   33.9720 C.2   165  ASP165      0.3671
    128  OD1        1.6990   15.6890   33.5290 O.co2 165  ASP165     -0.2456
    129  OD2        0.8570   17.7140   33.2370 O.co2 165  ASP165     -0.2456
@<TRIPOS>BOND
     1     1     2    1
     2    11    10    2
     3     2     3    1
     4     2     5    1
     5    10     9    1
     6     8     9    1
     7     4     3    2
     8     7     5    1
     9     9    12    1
    10     5     6    1
    11    12    13    1
    12    12    14    1
    13    22    23    2
    14    22    21    1
    15    21    20    1
    16    21    24    1
    17    25    24    1
    18    25    26    1
    19    66    67    1
    20    17    16    1
    21    17    18    2
    22   105   103    1
    23    80    78    1
    24    16    15    1
    25    16    19    1
    26   104   103    1
    27    69    68    2
    28    26    27    1
    29   103   102    1
    30    79    78    1
    31    68    67    1
    32    68    74   am
    33    67    70    1
    34    78    75    1
    35    74    75    1
    36    75    76    1
    37   102    99    1
    38    27    28    1
    39    70    71    1
    40    71    72    1
    41    71    73    1
    42    99    98    1
    43    99   100    1
    44   109   108    2
    45    84    83    2
    46    76    81   am
    47    76    77    2
    48    81    82    1
    49    98    90   am
    50   100   106   am
    51   100   101    2
    52    36    35   ar
    53   106   107    1
    54   108   107    1
    55    83    82    1
    56    83    88   am
    57    90    91    2
    58    90    89    1
    59    82    85    1
    60   113   112    1
    61    87    85    1
    62    37    35   ar
    63    35    34    1
    64   107   110    1
    65    89    88    1
    66    89    92    1
    67    65    63    1
    68   111   110    1
    69   111   112    1
    70    85    86    1
    71    34    33    1
    72   129   127   ar
    73    33    30    1
    74    64    63    1
    75   128   127   ar
    76    92    93    1
    77    63    62    1
    78   127   126    1
    79    45    43    1
    80    60    59    1
    81    60    61    2
    82    62    59    1
    83    93    95   ar
    84    93    94   ar
    85    95    97   ar
    86   121   119    1
    87    59    58    1
    88    30    31    1
    89    30    29    1
    90    31    32    2
    91    53    51    1
    92    43    42    1
    93    43    44    1
    94    57    56    2
    95    94    96   ar
    96    97    96   ar
    97   126   123    1
    98    42    39    1
    99    51    50    1
   100    58    56   am
   101   119   118    1
   102   119   120    1
   103    56    55    1
   104   123   122    1
   105   123   124    1
   106   118   115    1
   107   122   116   am
   108    39    40    1
   109    39    38    1
   110   124   125    2
   111    50    52    1
   112    50    47    1
   113    40    41    2
   114    55    54    1
   115   116   115    1
   116   116   117    2
   117    54    48   am
   118   115   114    1
   119    47    48    1
   120    47    46    1
   121    48    49    2
