@<TRIPOS>MOLECULE
tmp/1w87A03.pdb
 82 82 0 0 0
SMALL
GASTEIGER

@<TRIPOS>ATOM
      1  N        149.9240   65.4960   -1.2440 N.3    95  GLU95      -0.1245
      2  CA       149.0290   64.3890   -0.9330 C.3    95  GLU95       0.1567
      3  C        147.5600   64.7460   -1.1040 C.2    95  GLU95       0.2260
      4  O        147.0120   65.5320   -0.3420 O.2    95  GLU95      -0.2867
      5  CB       149.2590   63.9000    0.4950 C.3    95  GLU95       0.0388
      6  CG       148.2330   62.8750    0.9220 C.3    95  GLU95       0.1160
      7  CD       148.0460   62.8010    2.4230 C.2    95  GLU95       0.3649
      8  OE1      148.0680   63.8590    3.0950 O.co2  95  GLU95      -0.2457
      9  OE2      147.8530   61.6770    2.9280 O.co2  95  GLU95      -0.2457
     10  N        143.3690   63.3600   -2.6860 N.3    97  LYS97      -0.1231
     11  CA       142.4010   62.2820   -2.8870 C.3    97  LYS97       0.1693
     12  C        142.0110   62.2920   -4.3670 C.2    97  LYS97       0.2592
     13  O        141.7510   63.3460   -4.9480 O.2    97  LYS97      -0.2718
     14  CB       141.1570   62.5020   -2.0160 C.3    97  LYS97       0.0285
     15  CG       141.3920   62.3890   -0.5170 C.3    97  LYS97       0.0035
     16  CD       141.3550   60.9520   -0.0790 C.3    97  LYS97       0.0206
     17  CE       141.9070   60.7910    1.3110 C.3    97  LYS97       0.1093
     18  NZ       141.2160   61.6800    2.2600 N.3    97  LYS97      -0.1314
     19  N        141.9910   61.1100   -4.9660 N.am   98  HIS98      -0.1962
     20  CA       141.6600   60.9580   -6.3690 C.3    98  HIS98       0.1772
     21  C        140.2710   61.4860   -6.6350 C.2    98  HIS98       0.2462
     22  O        139.3010   60.9960   -6.0630 O.2    98  HIS98      -0.2730
     23  CB       141.7170   59.4920   -6.7550 C.3    98  HIS98       0.0785
     24  CG       141.7980   59.2650   -8.2270 C.ar   98  HIS98       0.0821
     25  ND1      142.8030   59.7980   -9.0010 N.ar   98  HIS98      -0.2267
     26  CD2      141.0210   58.5380   -9.0630 C.ar   98  HIS98       0.1154
     27  CE1      142.6450   59.4070  -10.2520 C.ar   98  HIS98       0.1986
     28  NE2      141.5710   58.6410  -10.3160 N.ar   98  HIS98      -0.2212
     29  N        140.1550   62.4790   -7.5300 N.am   99  PRO99      -0.2716
     30  CA       138.8790   63.1060   -7.8970 C.3    99  PRO99       0.1536
     31  C        137.7200   62.1180   -7.9890 C.2    99  PRO99       0.2598
     32  O        136.5500   62.5080   -7.9210 O.2    99  PRO99      -0.2715
     33  CB       139.1900   63.7700   -9.2390 C.3    99  PRO99       0.0310
     34  CG       140.6090   64.1660   -9.0820 C.3    99  PRO99       0.0237
     35  CD       141.2310   62.9370   -8.4250 C.3    99  PRO99       0.0939
     36  N        138.0410   60.8400   -8.1480 N.am  100  GLU100     -0.1964
     37  CA       136.9960   59.8460   -8.2260 C.3   100  GLU100      0.1733
     38  C        137.5080   58.4330   -8.0140 C.2   100  GLU100      0.2617
     39  O        137.9530   57.7740   -8.9500 O.2   100  GLU100     -0.2715
     40  CB       136.2690   59.9520   -9.5670 C.3   100  GLU100      0.0429
     41  CG       134.8440   59.3950   -9.5180 C.3   100  GLU100      0.1163
     42  CD       133.9460   60.1280   -8.5110 C.2   100  GLU100      0.3649
     43  OE1      134.3240   60.2250   -7.3170 O.co2 100  GLU100     -0.2457
     44  OE2      132.8570   60.6020   -8.9160 O.co2 100  GLU100     -0.2457
     45  N        137.4280   57.9900   -6.7630 N.am  101  SER101     -0.1936
     46  CA       137.8490   56.6600   -6.3190 C.3   101  SER101      0.2055
     47  C        138.2480   56.8110   -4.8630 C.2   101  SER101      0.2644
     48  O        138.5420   55.8240   -4.1800 O.2   101  SER101     -0.2714
     49  CB       139.0490   56.1520   -7.1130 C.3   101  SER101      0.2130
     50  OG       140.1720   56.9740   -6.8820 O.3   101  SER101     -0.2179
     51  N        138.2690   58.0680   -4.4160 N.am  102  GLY102     -0.1939
     52  CA       138.6110   58.3980   -3.0430 C.3   102  GLY102      0.2014
     53  C        140.0320   58.0690   -2.6360 C.2   102  GLY102      0.2639
     54  O        140.5990   58.7160   -1.7590 O.2   102  GLY102     -0.2714
     55  N        140.5990   57.0470   -3.2620 N.am  103  GLU103     -0.1963
     56  CA       141.9620   56.6130   -2.9860 C.3   103  GLU103      0.1733
     57  C        142.9250   57.7900   -2.7200 C.2   103  GLU103      0.2617
     58  O        142.9250   58.7940   -3.4320 O.2   103  GLU103     -0.2715
     59  CB       142.4670   55.7880   -4.1820 C.3   103  GLU103      0.0429
     60  CG       142.3380   56.5440   -5.5140 C.3   103  GLU103      0.1163
     61  CD       142.9220   55.8250   -6.7330 C.2   103  GLU103      0.3649
     62  OE1      144.1270   55.4790   -6.7120 O.co2 103  GLU103     -0.2457
     63  OE2      142.1750   55.6250   -7.7220 O.co2 103  GLU103     -0.2457
     64  N        143.7430   57.6710   -1.6870 N.am  104  THR104     -0.1951
     65  CA       144.7100   58.7110   -1.3850 C.3   104  THR104      0.1897
     66  C        145.8510   58.5920   -2.3930 C.2   104  THR104      0.2313
     67  O        146.2780   57.4880   -2.7210 O.2   104  THR104     -0.2863
     68  CB       145.2570   58.5390    0.0440 C.3   104  THR104      0.1794
     69  OG1      144.2930   59.0330    0.9760 O.3   104  THR104     -0.2208
     70  CG2      146.5610   59.2820    0.2280 C.3   104  THR104      0.0378
     71  N        149.7340   60.2360   -3.3920 N.3   106  TYR106     -0.1241
     72  CA       150.8500   61.0930   -3.0080 C.3   106  TYR106      0.1605
     73  C        151.6140   61.5040   -4.2510 C.2   106  TYR106      0.2264
     74  O        151.6130   60.7960   -5.2620 O.2   106  TYR106     -0.2867
     75  CB       151.8190   60.3520   -2.1100 C.3   106  TYR106      0.0534
     76  CG       151.2080   59.7820   -0.8820 C.ar  106  TYR106     -0.0201
     77  CD1      151.0520   60.5510    0.2570 C.ar  106  TYR106     -0.0009
     78  CD2      150.8130   58.4590   -0.8440 C.ar  106  TYR106     -0.0009
     79  CE1      150.5200   60.0080    1.4150 C.ar  106  TYR106      0.0417
     80  CE2      150.2790   57.9050    0.3010 C.ar  106  TYR106      0.0417
     81  CZ       150.1380   58.6800    1.4300 C.ar  106  TYR106      0.1957
     82  OH       149.6270   58.1160    2.5740 O.3   106  TYR106     -0.2866
@<TRIPOS>BOND
     1    28    27   ar
     2    28    26   ar
     3    27    25   ar
     4    40    41    1
     5    40    37    1
     6    41    42    1
     7    33    34    1
     8    33    30    1
     9    34    35    1
    10    26    24   ar
    11    25    24   ar
    12    39    38    2
    13    44    42   ar
    14    42    43   ar
    15    35    29    1
    16    24    23    1
    17    37    36    1
    18    37    38    1
    19    36    31   am
    20    38    45   am
    21    31    32    2
    22    31    30    1
    23    30    29    1
    24    63    61   ar
    25    29    21   am
    26    49    50    1
    27    49    46    1
    28    45    46    1
    29    23    20    1
    30    61    62   ar
    31    61    60    1
    32    21    20    1
    33    21    22    2
    34    20    19    1
    35    46    47    1
    36    60    59    1
    37    74    73    2
    38    19    12   am
    39    13    12    2
    40    47    51   am
    41    47    48    2
    42    51    52    1
    43    12    11    1
    44    73    72    1
    45    59    56    1
    46    58    57    2
    47    71    72    1
    48    55    56    1
    49    55    53   am
    50    52    53    1
    51    72    75    1
    52    56    57    1
    53    11    10    1
    54    11    14    1
    55    67    66    2
    56    57    64   am
    57    53    54    2
    58    66    65    1
    59    75    76    1
    60    14    15    1
    61    64    65    1
    62    65    68    1
    63     1     2    1
    64     3     2    1
    65     3     4    2
    66     2     5    1
    67    76    78   ar
    68    76    77   ar
    69    78    80   ar
    70    15    16    1
    71    16    17    1
    72    68    70    1
    73    68    69    1
    74    77    79   ar
    75    80    81   ar
    76     5     6    1
    77     6     7    1
    78    17    18    1
    79    79    81   ar
    80    81    82    1
    81     7     9   ar
    82     7     8   ar
