@<TRIPOS>MOLECULE
tmp/1w88A00.pdb
 137 130 0 0 0
SMALL
GASTEIGER

@<TRIPOS>ATOM
      1  N         59.3980   26.3700   83.7520 N.3    77  GLN77      -0.1245
      2  CA        59.1190   26.5550   85.1770 C.3    77  GLN77       0.1566
      3  C         59.0640   25.2450   85.9500 C.2    77  GLN77       0.2260
      4  O         58.8020   25.2570   87.1510 O.2    77  GLN77      -0.2867
      5  CB        57.8110   27.3390   85.3870 C.3    77  GLN77       0.0367
      6  CG        57.9620   28.8600   85.2740 C.3    77  GLN77       0.0905
      7  CD        56.7180   29.6300   85.7280 C.2    77  GLN77       0.2608
      8  OE1       56.1250   30.3750   84.9520 O.2    77  GLN77      -0.2717
      9  NE2       56.3200   29.4450   86.9820 N.am   77  GLN77      -0.0878
     10  N         46.2390   30.6980   88.1860 N.3    98  TYR98      -0.1227
     11  CA        45.7680   30.2310   86.8580 C.3    98  TYR98       0.1736
     12  C         46.7600   29.3440   86.0760 C.2    98  TYR98       0.2595
     13  O         46.3490   28.5530   85.2220 O.2    98  TYR98      -0.2718
     14  CB        45.3300   31.4200   85.9780 C.3    98  TYR98       0.0548
     15  CG        46.4070   32.4850   85.8470 C.ar   98  TYR98      -0.0200
     16  CD1       47.4200   32.3600   84.9060 C.ar   98  TYR98      -0.0009
     17  CD2       46.4240   33.6010   86.6990 C.ar   98  TYR98      -0.0009
     18  CE1       48.4310   33.3110   84.8100 C.ar   98  TYR98       0.0417
     19  CE2       47.4290   34.5700   86.6010 C.ar   98  TYR98       0.0417
     20  CZ        48.4260   34.4190   85.6580 C.ar   98  TYR98       0.1957
     21  OH        49.4390   35.3540   85.5540 O.3    98  TYR98      -0.2866
     22  N         48.0510   29.4970   86.3670 N.am   99  ARG99      -0.1980
     23  CA        49.1420   28.8650   85.6170 C.3    99  ARG99       0.1597
     24  C         49.6780   27.6190   86.3450 C.2    99  ARG99       0.2287
     25  O         50.5570   26.9080   85.8330 O.2    99  ARG99      -0.2864
     26  CB        50.2770   29.8930   85.4080 C.3    99  ARG99       0.0334
     27  CG        51.4270   29.4600   84.4660 C.3    99  ARG99       0.0492
     28  CD        52.5710   30.5050   84.3600 C.3    99  ARG99       0.2205
     29  NE        52.1000   31.8360   83.9520 N.pl3  99  ARG99      -0.0865
     30  CZ        51.8320   32.2170   82.7000 C.cat  99  ARG99       0.5346
     31  NH1       51.9870   31.3790   81.6730 N.pl3  99  ARG99       0.1354
     32  NH2       51.3980   33.4510   82.4710 N.pl3  99  ARG99       0.1354
     33  N         41.7480   32.6590   89.1110 N.3   138  ILE138     -0.1231
     34  CA        41.9740   33.6510   88.0520 C.3   138  ILE138      0.1692
     35  C         42.1960   35.0750   88.5890 C.2   138  ILE138      0.2592
     36  O         42.9530   35.8360   88.0020 O.2   138  ILE138     -0.2718
     37  CB        40.9280   33.5450   86.9080 C.3   138  ILE138      0.0266
     38  CG1       41.6250   33.3060   85.5480 C.3   138  ILE138      0.0019
     39  CG2       39.9420   34.6870   86.9330 C.3   138  ILE138      0.0020
     40  CD1       42.3390   34.5020   84.9310 C.3   138  ILE138      0.0001
     41  N         41.5840   35.4160   89.7260 N.am  139  ILE139     -0.1966
     42  CA        41.8550   36.7120   90.3780 C.3   139  ILE139      0.1727
     43  C         43.2000   36.7590   91.0990 C.2   139  ILE139      0.2616
     44  O         43.4070   36.1010   92.1260 O.2   139  ILE139     -0.2715
     45  CB        40.7450   37.1490   91.3450 C.3   139  ILE139      0.0290
     46  CG1       39.3950   37.2930   90.6120 C.3   139  ILE139      0.0022
     47  CG2       41.1450   38.4540   92.0470 C.3   139  ILE139      0.0023
     48  CD1       39.4720   38.0240   89.2390 C.3   139  ILE139      0.0001
     49  N         44.1060   37.5700   90.5670 N.am  140  ILE140     -0.1977
     50  CA        45.4720   37.5910   91.0460 C.3   140  ILE140      0.1596
     51  C         45.5480   38.0940   92.4920 C.2   140  ILE140      0.2287
     52  O         45.1340   39.2130   92.7990 O.2   140  ILE140     -0.2864
     53  CB        46.3930   38.3720   90.0800 C.3   140  ILE140      0.0276
     54  CG1       46.4040   37.6760   88.7190 C.3   140  ILE140      0.0022
     55  CG2       47.7960   38.4740   90.6200 C.3   140  ILE140      0.0022
     56  CD1       47.2780   38.3250   87.6930 C.3   140  ILE140      0.0001
     57  N         52.6770   34.9940   90.6030 N.3   168  GLY168     -0.1210
     58  CA        53.7710   35.4560   89.7340 C.3   168  GLY168      0.1956
     59  C         54.3980   36.7250   90.2800 C.2   168  GLY168      0.2612
     60  O         53.9460   37.2380   91.3190 O.2   168  GLY168     -0.2717
     61  N         55.4390   37.2190   89.5970 N.am  169  ASP169     -0.1959
     62  CA        56.1170   38.4710   89.9610 C.3   169  ASP169      0.1840
     63  C         55.1760   39.6820   89.9410 C.2   169  ASP169      0.2623
     64  O         55.3010   40.5840   90.7740 O.2   169  ASP169     -0.2715
     65  CB        57.3390   38.7370   89.0640 C.3   169  ASP169      0.1450
     66  CG        57.0640   38.4490   87.5840 C.2   169  ASP169      0.3671
     67  OD1       56.9630   37.2470   87.2340 O.co2 169  ASP169     -0.2456
     68  OD2       56.9580   39.4090   86.7670 O.co2 169  ASP169     -0.2456
     69  N         54.2350   39.6900   88.9950 N.am  170  GLY170     -0.1940
     70  CA        53.2210   40.7440   88.8990 C.3   170  GLY170      0.2014
     71  C         52.3240   40.7760   90.1180 C.2   170  GLY170      0.2639
     72  O         52.0720   41.8480   90.6760 O.2   170  GLY170     -0.2714
     73  N         51.8590   39.6000   90.5420 N.am  171  GLY171     -0.1954
     74  CA        50.9880   39.4610   91.7180 C.3   171  GLY171      0.1869
     75  C         51.5350   39.9940   93.0370 C.2   171  GLY171      0.2309
     76  O         50.7740   40.2130   93.9810 O.2   171  GLY171     -0.2863
     77  N         49.8920   43.2560   94.2160 N.3   174  GLN174     -0.1245
     78  CA        48.5430   43.2760   94.7940 C.3   174  GLN174      0.1566
     79  C         48.5440   43.5760   96.2940 C.2   174  GLN174      0.2260
     80  O         49.4980   43.2380   97.0030 O.2   174  GLN174     -0.2867
     81  CB        47.8140   41.9420   94.5570 C.3   174  GLN174      0.0367
     82  CG        47.3530   41.6950   93.1220 C.3   174  GLN174      0.0905
     83  CD        46.4380   42.7900   92.5480 C.2   174  GLN174      0.2608
     84  OE1       45.9760   43.7130   93.2410 O.2   174  GLN174     -0.2717
     85  NE2       46.1810   42.6810   91.2750 N.am  174  GLN174     -0.0878
     86  N         56.6450   33.0900   91.8000 N.3   196  GLN196     -0.1245
     87  CA        57.4080   32.6490   90.6310 C.3   196  GLN196      0.1566
     88  C         57.7810   33.8260   89.7380 C.2   196  GLN196      0.2260
     89  O         56.9360   34.3750   89.0380 O.2   196  GLN196     -0.2867
     90  CB        56.5990   31.6070   89.8710 C.3   196  GLN196      0.0367
     91  CG        56.1420   30.4900   90.7970 C.3   196  GLN196      0.0905
     92  CD        55.4690   29.3580   90.0750 C.2   196  GLN196      0.2608
     93  OE1       56.1000   28.3330   89.7800 O.2   196  GLN196     -0.2717
     94  NE2       54.1760   29.5240   89.7850 N.am  196  GLN196     -0.0878
     95  N         59.3920   35.4750   86.7200 N.3   198  ASN198     -0.1240
     96  CA        59.9520   35.3850   85.3760 C.3   198  ASN198      0.1653
     97  C         60.2190   36.7620   84.7390 C.2   198  ASN198      0.2266
     98  O         60.4390   36.8730   83.5330 O.2   198  ASN198     -0.2867
     99  CB        59.0980   34.4670   84.4890 C.3   198  ASN198      0.1155
    100  CG        57.9980   35.2020   83.7800 C.2   198  ASN198      0.2627
    101  OD1       57.2370   35.9540   84.3930 O.2   198  ASN198     -0.2716
    102  ND2       57.9070   35.0000   82.4690 N.am  198  ASN198     -0.0877
    103  N         58.6380   39.3280   83.8050 N.3   200  PHE200     -0.1227
    104  CA        57.5960   40.0390   83.0530 C.3   200  PHE200      0.1736
    105  C         56.1840   39.6520   83.5110 C.2   200  PHE200      0.2595
    106  O         55.8860   38.4720   83.7270 O.2   200  PHE200     -0.2718
    107  CB        57.7380   39.8060   81.5400 C.3   200  PHE200      0.0547
    108  CG        58.9700   40.4330   80.9310 C.ar  200  PHE200     -0.0202
    109  CD1       60.1560   39.6990   80.8040 C.ar  200  PHE200     -0.0042
    110  CD2       58.9460   41.7510   80.4740 C.ar  200  PHE200     -0.0042
    111  CE1       61.3020   40.2740   80.2440 C.ar  200  PHE200     -0.0003
    112  CE2       60.0880   42.3380   79.9030 C.ar  200  PHE200     -0.0003
    113  CZ        61.2680   41.5980   79.7900 C.ar  200  PHE200     -0.0000
    114  N         55.3280   40.6570   83.6770 N.am  201  ALA201     -0.1966
    115  CA        53.8920   40.4380   83.8730 C.3   201  ALA201      0.1728
    116  C         53.1850   40.9430   82.6180 C.2   201  ALA201      0.2616
    117  O         53.1110   42.1540   82.3770 O.2   201  ALA201     -0.2715
    118  CB        53.3890   41.1590   85.1160 C.3   201  ALA201      0.0334
    119  N         52.6740   40.0040   81.8230 N.am  202  ILE202     -0.1977
    120  CA        52.3000   40.2540   80.4190 C.3   202  ILE202      0.1596
    121  C         53.4550   40.9670   79.6620 C.2   202  ILE202      0.2287
    122  O         54.4340   40.3160   79.2910 O.2   202  ILE202     -0.2864
    123  CB        50.9160   40.9750   80.2600 C.3   202  ILE202      0.0276
    124  CG1       49.8350   40.2650   81.0910 C.3   202  ILE202      0.0022
    125  CG2       50.5220   41.0520   78.7770 C.3   202  ILE202      0.0022
    126  CD1       48.4620   40.9170   81.0450 C.3   202  ILE202      0.0001
    127  N         60.2830   31.3960   81.4540 N.3   263  ARG263     -0.1245
    128  CA        59.3120   30.6540   80.6590 C.3   263  ARG263      0.1563
    129  C         59.5900   30.8950   79.1690 C.2   263  ARG263      0.2260
    130  O         60.0500   31.9770   78.7830 O.2   263  ARG263     -0.2867
    131  CB        57.8880   31.0590   81.0290 C.3   263  ARG263      0.0307
    132  CG        56.7980   30.3110   80.2690 C.3   263  ARG263      0.0489
    133  CD        55.3710   30.7070   80.6300 C.3   263  ARG263      0.2205
    134  NE        55.2290   32.1480   80.8700 N.pl3 263  ARG263     -0.0865
    135  CZ        54.7700   32.9650   79.9460 C.cat 263  ARG263      0.5346
    136  NH1       54.4220   32.5120   78.7620 N.pl3 263  ARG263      0.1354
    137  NH2       54.6600   34.2600   80.1790 N.pl3 263  ARG263      0.1354
@<TRIPOS>BOND
     1   136   135    1
     2   125   123    1
     3   130   129    2
     4   129   128    1
     5   122   121    2
     6   121   120    1
     7   113   112   ar
     8   113   111   ar
     9   112   110   ar
    10   135   137    1
    11   135   134    2
    12   111   109   ar
    13   123   120    1
    14   123   124    1
    15   132   133    1
    16   132   131    1
    17   120   119    1
    18   110   108   ar
    19   133   134    1
    20   128   131    1
    21   128   127    1
    22   109   108   ar
    23   108   107    1
    24   126   124    1
    25   107   104    1
    26    31    30    1
    27   119   116   am
    28   117   116    2
    29   102   100   am
    30    32    30    1
    31   116   115    1
    32    30    29    2
    33   104   105    1
    34   104   103    1
    35   105   114   am
    36   105   106    2
    37    98    97    2
    38   114   115    1
    39     1     2    1
    40   100   101    2
    41   100    99    1
    42   115   118    1
    43    29    28    1
    44    28    27    1
    45    27    26    1
    46    99    96    1
    47    97    96    1
    48    18    16   ar
    49    18    20   ar
    50    16    15   ar
    51    40    38    1
    52     8     7    2
    53     2     5    1
    54     2     3    1
    55    13    12    2
    56     6     5    1
    57     6     7    1
    58    96    95    1
    59    26    23    1
    60    38    37    1
    61    21    20    1
    62    23    24    1
    63    23    22    1
    64    20    19   ar
    65     7     9   am
    66    25    24    2
    67    15    14    1
    68    15    17   ar
    69     3     4    2
    70    14    11    1
    71    12    22   am
    72    12    11    1
    73    19    17   ar
    74    68    66   ar
    75    11    10    1
    76    37    39    1
    77    37    34    1
    78    67    66   ar
    79    66    65    1
    80    56    54    1
    81    36    35    2
    82    34    35    1
    83    34    33    1
    84    35    41   am
    85    54    53    1
    86    70    69    1
    87    70    71    1
    88    69    63   am
    89    89    88    2
    90    65    62    1
    91    48    46    1
    92    61    62    1
    93    61    59   am
    94    41    42    1
    95    58    59    1
    96    58    57    1
    97    88    87    1
    98    93    92    2
    99    94    92   am
   100    90    87    1
   101    90    91    1
   102    63    62    1
   103    63    64    2
   104    92    91    1
   105    53    55    1
   106    53    50    1
   107    71    73   am
   108    71    72    2
   109    59    60    2
   110    42    43    1
   111    42    45    1
   112    73    74    1
   113    49    50    1
   114    49    43   am
   115    46    45    1
   116    87    86    1
   117    50    51    1
   118    43    44    2
   119    85    83   am
   120    45    47    1
   121    74    75    1
   122    51    52    2
   123    83    82    1
   124    83    84    2
   125    75    76    2
   126    82    81    1
   127    77    78    1
   128    81    78    1
   129    78    79    1
   130    79    80    2
