@<TRIPOS>MOLECULE
tmp/1w8cA00.pdb
 191 182 0 0 0
SMALL
GASTEIGER

@<TRIPOS>ATOM
      1  N         40.8220  -20.6300    7.1820 N.3     8  GLU8       -0.1245
      2  CA        40.5690  -19.9700    5.9120 C.3     8  GLU8        0.1567
      3  C         41.2030  -18.5920    5.8560 C.2     8  GLU8        0.2260
      4  O         41.4250  -17.9520    6.8860 O.2     8  GLU8       -0.2867
      5  CB        39.0620  -19.8570    5.6370 C.3     8  GLU8        0.0388
      6  CG        38.3000  -18.9090    6.5570 C.3     8  GLU8        0.1160
      7  CD        36.8110  -18.8910    6.2760 C.2     8  GLU8        0.3649
      8  OE1       36.4020  -19.4360    5.2250 O.co2   8  GLU8       -0.2457
      9  OE2       36.0520  -18.3410    7.1050 O.co2   8  GLU8       -0.2457
     10  N         40.8230  -14.9170    5.5660 N.3    10  ILE10      -0.1231
     11  CA        39.7690  -13.9640    5.8670 C.3    10  ILE10       0.1692
     12  C         39.9000  -12.8470    4.8610 C.2    10  ILE10       0.2593
     13  O         38.9100  -12.3490    4.3330 O.2    10  ILE10      -0.2718
     14  CB        39.8860  -13.4010    7.3000 C.3    10  ILE10       0.0266
     15  CG1       39.5540  -14.4810    8.3340 C.3    10  ILE10       0.0019
     16  CG2       38.9590  -12.2100    7.4670 C.3    10  ILE10       0.0020
     17  CD1       39.6460  -14.0110    9.7740 C.3    10  ILE10       0.0001
     18  N         41.1380  -12.4490    4.6050 N.am   11  GLY11      -0.1942
     19  CA        41.3890  -11.4090    3.6390 C.3    11  GLY11       0.2014
     20  C         42.7950  -10.8960    3.7280 C.2    11  GLY11       0.2639
     21  O         43.6840  -11.5490    4.2710 O.2    11  GLY11      -0.2714
     22  N         42.9760   -9.6990    3.1910 N.am   12  GLU12      -0.1963
     23  CA        44.2770   -9.0890    3.0760 C.3    12  GLU12       0.1733
     24  C         44.1780   -7.7270    3.6870 C.2    12  GLU12       0.2617
     25  O         43.4530   -6.8710    3.1870 O.2    12  GLU12      -0.2715
     26  CB        44.6770   -8.9950    1.6030 C.3    12  GLU12       0.0429
     27  CG        44.8800  -10.3600    0.9590 C.3    12  GLU12       0.1163
     28  CD        44.7660  -10.3390   -0.5540 C.2    12  GLU12       0.3649
     29  OE1       44.0400   -9.4690   -1.1000 O.co2  12  GLU12      -0.2457
     30  OE2       45.4090  -11.2030   -1.2000 O.co2  12  GLU12      -0.2457
     31  N         44.8970   -7.5240    4.7840 N.am   13  GLY13      -0.1940
     32  CA        44.9380   -6.2280    5.4340 C.3    13  GLY13       0.2014
     33  C         45.9620   -5.3280    4.7760 C.2    13  GLY13       0.2639
     34  O         46.4530   -5.6080    3.6810 O.2    13  GLY13      -0.2714
     35  N         46.2830   -4.2360    5.4510 N.am   14  THR14      -0.1950
     36  CA        47.3100   -3.3240    4.9780 C.3    14  THR14       0.1897
     37  C         48.6760   -4.0160    4.9270 C.2    14  THR14       0.2313
     38  O         49.4140   -3.8850    3.9390 O.2    14  THR14      -0.2863
     39  CB        47.3380   -2.0670    5.8880 C.3    14  THR14       0.1794
     40  OG1       46.1300   -1.3150    5.7040 O.3    14  THR14      -0.2208
     41  CG2       48.4050   -1.0890    5.4430 C.3    14  THR14       0.0378
     42  N         45.3250  -12.0380    6.5430 N.3    18  VAL18      -0.1245
     43  CA        44.6280  -12.3660    7.7860 C.3    18  VAL18       0.1561
     44  C         43.9810  -13.7120    7.6160 C.2    18  VAL18       0.2260
     45  O         43.1880  -13.9180    6.6780 O.2    18  VAL18      -0.2867
     46  CB        43.5070  -11.3440    8.1310 C.3    18  VAL18       0.0252
     47  CG1       42.7830  -11.7250    9.4570 C.3    18  VAL18       0.0019
     48  CG2       44.0590   -9.9700    8.2520 C.3    18  VAL18       0.0019
     49  N         42.0780  -14.9030   15.0130 N.3    31  ALA31      -0.1245
     50  CA        42.4610  -14.1940   13.8030 C.3    31  ALA31       0.1562
     51  C         43.9690  -14.1060   13.8220 C.2    31  ALA31       0.2260
     52  O         44.5540  -13.5270   14.7380 O.2    31  ALA31      -0.2867
     53  CB        41.8600  -12.7980   13.7840 C.3    31  ALA31       0.0290
     54  N         47.3570  -12.7980   11.9790 N.3    33  LYS33      -0.1245
     55  CA        47.7990  -11.8350   10.9950 C.3    33  LYS33       0.1561
     56  C         49.3130  -11.9450   10.7450 C.2    33  LYS33       0.2260
     57  O         50.1040  -11.9670   11.6850 O.2    33  LYS33      -0.2867
     58  CB        47.3470  -10.4270   11.4080 C.3    33  LYS33       0.0271
     59  CG        45.8140  -10.3570   11.5880 C.3    33  LYS33       0.0035
     60  CD        45.2880   -9.0070   12.0400 C.3    33  LYS33       0.0206
     61  CE        43.8610   -9.1440   12.5810 C.3    33  LYS33       0.1093
     62  NZ        43.0690   -7.9430   12.1980 N.3    33  LYS33      -0.1314
     63  N         39.4790   -5.1980   20.2030 N.3    57  VAL57      -0.1245
     64  CA        39.8060   -6.5740   19.8550 C.3    57  VAL57       0.1561
     65  C         41.1040   -6.9940   20.5500 C.2    57  VAL57       0.2260
     66  O         42.1580   -6.3680   20.3560 O.2    57  VAL57      -0.2867
     67  CB        39.9270   -6.8060   18.3560 C.3    57  VAL57       0.0252
     68  CG1       40.2350   -8.2910   18.0950 C.3    57  VAL57       0.0019
     69  CG2       38.6480   -6.4320   17.6750 C.3    57  VAL57       0.0019
     70  N         44.9980  -12.4340   17.2480 N.3    73  PHE73      -0.1227
     71  CA        43.9050  -11.6470   17.8270 C.3    73  PHE73       0.1736
     72  C         42.7070  -12.4980   18.1810 C.2    73  PHE73       0.2595
     73  O         42.4930  -13.5250   17.5600 O.2    73  PHE73      -0.2718
     74  CB        43.4380  -10.5420   16.8600 C.3    73  PHE73       0.0547
     75  CG        44.3730   -9.3700   16.7840 C.ar   73  PHE73      -0.0202
     76  CD1       45.3390   -9.3100   15.7870 C.ar   73  PHE73      -0.0042
     77  CD2       44.2970   -8.3450   17.7140 C.ar   73  PHE73      -0.0042
     78  CE1       46.1990   -8.2430   15.7000 C.ar   73  PHE73      -0.0003
     79  CE2       45.1250   -7.2750   17.6250 C.ar   73  PHE73      -0.0003
     80  CZ        46.0930   -7.2260   16.6210 C.ar   73  PHE73      -0.0000
     81  N         41.9280  -12.0370   19.1620 N.am   74  GLU74      -0.1965
     82  CA        40.5490  -12.4800   19.3480 C.3    74  GLU74       0.1733
     83  C         39.8050  -12.4190   18.0150 C.2    74  GLU74       0.2616
     84  O         39.9570  -11.4390   17.2580 O.2    74  GLU74      -0.2715
     85  CB        39.8700  -11.5310   20.3600 C.3    74  GLU74       0.0429
     86  CG        38.3460  -11.5820   20.3710 C.3    74  GLU74       0.1163
     87  CD        37.7150  -10.4870   21.2300 C.2    74  GLU74       0.3649
     88  OE1       36.5510  -10.6710   21.6190 O.co2  74  GLU74      -0.2457
     89  OE2       38.3750   -9.4720   21.5610 O.co2  74  GLU74      -0.2457
     90  N         39.0040  -13.4440   17.7320 N.am   75  PHE75      -0.1960
     91  CA        38.2560  -13.5440   16.4940 C.3    75  PHE75       0.1771
     92  C         36.7960  -13.1150   16.6570 C.2    75  PHE75       0.2619
     93  O         36.1060  -13.5700   17.5640 O.2    75  PHE75      -0.2715
     94  CB        38.2880  -14.9960   15.9840 C.3    75  PHE75       0.0574
     95  CG        37.4520  -15.2280   14.7570 C.ar   75  PHE75      -0.0200
     96  CD1       37.9860  -15.0150   13.4920 C.ar   75  PHE75      -0.0042
     97  CD2       36.1480  -15.7090   14.8650 C.ar   75  PHE75      -0.0042
     98  CE1       37.2320  -15.2170   12.3430 C.ar   75  PHE75      -0.0003
     99  CE2       35.3810  -15.9210   13.7260 C.ar   75  PHE75      -0.0003
    100  CZ        35.9150  -15.6830   12.4610 C.ar   75  PHE75      -0.0000
    101  N         36.3200  -12.2640   15.7550 N.am   76  LEU76      -0.1963
    102  CA        34.8990  -11.9100   15.7410 C.3    76  LEU76       0.1728
    103  C         34.3440  -12.3100   14.3730 C.2    76  LEU76       0.2616
    104  O         35.0910  -12.3860   13.3870 O.2    76  LEU76      -0.2715
    105  CB        34.6800  -10.4210   16.0650 C.3    76  LEU76       0.0311
    106  CG        34.7290  -10.0560   17.5780 C.3    76  LEU76       0.0022
    107  CD1       36.1690   -9.6530   17.9690 C.3    76  LEU76       0.0001
    108  CD2       33.7850   -8.9280   17.9180 C.3    76  LEU76       0.0001
    109  N         33.0400  -12.5690   14.3080 N.am   77  HIS77      -0.1959
    110  CA        32.4730  -13.2450   13.1410 C.3    77  HIS77       0.1787
    111  C         31.9970  -12.3590   12.0190 C.2    77  HIS77       0.2620
    112  O         31.7310  -12.8440   10.9190 O.2    77  HIS77      -0.2715
    113  CB        31.2960  -14.1140   13.5520 C.3    77  HIS77       0.0785
    114  CG        31.7030  -15.4010   14.1730 C.ar   77  HIS77       0.0821
    115  ND1       32.0780  -15.4950   15.4990 N.ar   77  HIS77      -0.2267
    116  CD2       31.8060  -16.6470   13.6520 C.ar   77  HIS77       0.1154
    117  CE1       32.3730  -16.7510   15.7690 C.ar   77  HIS77       0.1986
    118  NE2       32.2180  -17.4660   14.6680 N.ar   77  HIS77      -0.2212
    119  N         31.8630  -11.0660   12.2720 N.am   78  GLN78      -0.1963
    120  CA        31.3440  -10.2080   11.2190 C.3    78  GLN78       0.1733
    121  C         31.9300   -8.7920   11.3610 C.2    78  GLN78       0.2616
    122  O         32.3170   -8.4040   12.4600 O.2    78  GLN78      -0.2715
    123  CB        29.8150  -10.2340   11.3220 C.3    78  GLN78       0.0408
    124  CG        29.1440   -9.0570   10.7340 C.3    78  GLN78       0.0908
    125  CD        28.8780   -9.2280    9.3060 C.2    78  GLN78       0.2608
    126  OE1       29.7960   -9.5160    8.5280 O.2    78  GLN78      -0.2717
    127  NE2       27.6080   -9.0800    8.9240 N.am   78  GLN78      -0.0878
    128  N         32.0390   -8.0460   10.2650 N.am   79  ASP79      -0.1971
    129  CA        32.5080   -6.6560   10.3400 C.3    79  ASP79       0.1709
    130  C         31.4130   -5.6650    9.9910 C.2    79  ASP79       0.2293
    131  O         30.3880   -6.0500    9.4350 O.2    79  ASP79      -0.2864
    132  CB        33.7840   -6.4100    9.4980 C.3    79  ASP79       0.1436
    133  CG        33.5330   -6.3800    7.9710 C.2    79  ASP79       0.3671
    134  OD1       32.4120   -6.1840    7.4560 O.co2  79  ASP79      -0.2456
    135  OD2       34.4530   -6.5510    7.1920 O.co2  79  ASP79      -0.2456
    136  N         30.3020   -5.2590    6.0640 N.3    82  LYS82      -0.1245
    137  CA        29.3760   -6.2870    5.5830 C.3    82  LYS82       0.1561
    138  C         28.0050   -6.1810    6.2830 C.2    82  LYS82       0.2260
    139  O         26.9610   -6.4110    5.6510 O.2    82  LYS82      -0.2867
    140  CB        29.9970   -7.6750    5.7590 C.3    82  LYS82       0.0271
    141  CG        31.0320   -8.0460    4.6680 C.3    82  LYS82       0.0035
    142  CD        31.9770   -9.1770    5.1270 C.3    82  LYS82       0.0206
    143  CE        32.8740   -9.6610    4.0000 C.3    82  LYS82       0.1093
    144  NZ        34.3060   -9.5950    4.4130 N.3    82  LYS82      -0.1314
    145  N         37.8840    2.4600   10.0450 N.3   122  LYS122     -0.1245
    146  CA        37.0960    2.2310    8.8280 C.3   122  LYS122      0.1561
    147  C         36.1330    1.0860    9.1380 C.2   122  LYS122      0.2260
    148  O         36.4090    0.2630   10.0330 O.2   122  LYS122     -0.2867
    149  CB        38.0000    1.8890    7.6260 C.3   122  LYS122      0.0271
    150  CG        38.6910    0.5400    7.7370 C.3   122  LYS122      0.0035
    151  CD        39.7280    0.3030    6.6720 C.3   122  LYS122      0.0206
    152  CE        40.9870    1.0130    7.0330 C.3   122  LYS122      0.1093
    153  NZ        42.1360    0.4610    6.2990 N.3   122  LYS122     -0.1314
    154  N         35.6020   -1.6860    7.8940 N.3   124  GLN124     -0.1231
    155  CA        36.2370   -3.0160    7.8130 C.3   124  GLN124      0.1698
    156  C         37.0390   -3.4190    9.0450 C.2   124  GLN124      0.2592
    157  O         37.3490   -4.6000    9.2090 O.2   124  GLN124     -0.2718
    158  CB        37.1380   -3.1360    6.5590 C.3   124  GLN124      0.0381
    159  CG        36.3670   -3.1090    5.2420 C.3   124  GLN124      0.0905
    160  CD        36.0310   -1.6610    4.7600 C.2   124  GLN124      0.2608
    161  OE1       36.3060   -0.6610    5.4450 O.2   124  GLN124     -0.2717
    162  NE2       35.4250   -1.5680    3.5840 N.am  124  GLN124     -0.0878
    163  N         37.4170   -2.4700    9.8940 N.am  125  ASN125     -0.1974
    164  CA        38.1070   -2.8490   11.1270 C.3   125  ASN125      0.1688
    165  C         37.3050   -2.6480   12.4300 C.2   125  ASN125      0.2292
    166  O         37.8640   -2.6570   13.5240 O.2   125  ASN125     -0.2864
    167  CB        39.6010   -2.3790   11.2250 C.3   125  ASN125      0.1181
    168  CG        39.7900   -0.8640   11.1400 C.2   125  ASN125      0.2629
    169  OD1       40.8040   -0.3970   10.5940 O.2   125  ASN125     -0.2716
    170  ND2       38.8350   -0.1000   11.6320 N.am  125  ASN125     -0.0877
    171  N         34.4120   -4.5600   14.3860 N.3   127  LEU127     -0.1245
    172  CA        33.9580   -5.9390   14.3190 C.3   127  LEU127      0.1561
    173  C         32.8580   -6.1710   15.3310 C.2   127  LEU127      0.2260
    174  O         32.8810   -5.5820   16.4100 O.2   127  LEU127     -0.2867
    175  CB        35.1260   -6.9050   14.5580 C.3   127  LEU127      0.0270
    176  CG        36.3140   -6.8000   13.6090 C.3   127  LEU127      0.0019
    177  CD1       37.3780   -7.8190   14.0010 C.3   127  LEU127      0.0001
    178  CD2       35.8590   -7.0510   12.1550 C.3   127  LEU127      0.0001
    179  N         39.3450   -3.0820   15.8510 N.3   137  ALA137     -0.1231
    180  CA        40.4460   -4.0180   15.5400 C.3   137  ALA137      0.1694
    181  C         41.6890   -3.2750   15.0760 C.2   137  ALA137      0.2592
    182  O         41.5850   -2.2170   14.4420 O.2   137  ALA137     -0.2718
    183  CB        40.0340   -4.9940   14.4410 C.3   137  ALA137      0.0304
    184  N         42.8530   -3.8690   15.3300 N.am  138  ASP138     -0.1974
    185  CA        44.1310   -3.3650   14.8150 C.3   138  ASP138      0.1709
    186  C         44.5050   -2.0410   15.4350 C.2   138  ASP138      0.2293
    187  O         45.1940   -1.2590   14.8280 O.2   138  ASP138     -0.2864
    188  CB        44.1000   -3.2170   13.2980 C.3   138  ASP138      0.1436
    189  CG        43.9050   -4.5440   12.5720 C.2   138  ASP138      0.3671
    190  OD1       43.9020   -5.6240   13.2100 O.co2 138  ASP138     -0.2456
    191  OD2       43.7350   -4.5680   11.3260 O.co2 138  ASP138     -0.2456
@<TRIPOS>BOND
     1    30    28   ar
     2    29    28   ar
     3    28    27    1
     4    27    26    1
     5    26    23    1
     6    23    22    1
     7    23    24    1
     8    25    24    2
     9    22    20   am
    10   162   160   am
    11    19    20    1
    12    19    18    1
    13    34    33    2
    14    24    31   am
    15    20    21    2
    16    38    37    2
    17   143   144    1
    18   143   142    1
    19    13    12    2
    20    18    12   am
    21   141   142    1
    22   141   140    1
    23   160   159    1
    24   160   161    2
    25    33    32    1
    26    33    35   am
    27    31    32    1
    28    12    11    1
    29    37    36    1
    30    36    35    1
    31    36    39    1
    32     8     7   ar
    33   159   158    1
    34    41    39    1
    35    10    11    1
    36   137   140    1
    37   137   136    1
    38   137   138    1
    39     5     2    1
    40     5     6    1
    41   139   138    2
    42    40    39    1
    43     3     2    1
    44     3     4    2
    45    11    14    1
    46     2     1    1
    47     7     6    1
    48     7     9   ar
    49   153   152    1
    50    42    43    1
    51   158   155    1
    52   151   152    1
    53   151   150    1
    54    45    44    2
    55   135   133   ar
    56    14    16    1
    57    14    15    1
    58   134   133   ar
    59    44    43    1
    60   149   150    1
    61   149   146    1
    62    43    46    1
    63   155   154    1
    64   155   156    1
    65   133   132    1
    66    46    48    1
    67    46    47    1
    68    15    17    1
    69   126   125    2
    70   146   147    1
    71   146   145    1
    72   127   125   am
    73   156   157    2
    74   156   163   am
    75   147   148    2
    76   125   124    1
    77   131   130    2
    78   132   129    1
    79   163   164    1
    80   130   129    1
    81   128   129    1
    82   128   121   am
    83   169   168    2
    84   124   123    1
    85    56    55    1
    86    56    57    2
    87   112   111    2
    88    55    58    1
    89    55    54    1
    90   164   167    1
    91   164   165    1
    92   168   167    1
    93   168   170   am
    94   120   123    1
    95   120   121    1
    96   120   119    1
    97   191   189   ar
    98   121   122    2
    99    58    59    1
   100    59    60    1
   101   111   119   am
   102   111   110    1
   103    60    61    1
   104   178   176    1
   105    62    61    1
   106    98   100   ar
   107    98    96   ar
   108   165   166    2
   109   100    99   ar
   110   189   190   ar
   111   189   188    1
   112   110   113    1
   113   110   109    1
   114   188   185    1
   115   104   103    2
   116    96    95   ar
   117   113   114    1
   118   176   177    1
   119   176   175    1
   120   116   114   ar
   121   116   118   ar
   122    99    97   ar
   123    53    50    1
   124    50    51    1
   125    50    49    1
   126    51    52    2
   127   114   115   ar
   128   109   103   am
   129   172   171    1
   130   172   175    1
   131   172   173    1
   132   103   102    1
   133   183   180    1
   134   182   181    2
   135   118   117   ar
   136    95    97   ar
   137    95    94    1
   138   185   184    1
   139   185   186    1
   140   187   186    2
   141   181   184   am
   142   181   180    1
   143   173   174    2
   144   115   117   ar
   145   180   179    1
   146    78    76   ar
   147    78    80   ar
   148   102   101    1
   149   102   105    1
   150   101    92   am
   151    76    75   ar
   152    94    91    1
   153   105   106    1
   154    91    92    1
   155    91    90    1
   156    80    79   ar
   157    92    93    2
   158    75    74    1
   159    75    77   ar
   160    74    71    1
   161    70    71    1
   162    84    83    2
   163    73    72    2
   164   106   108    1
   165   106   107    1
   166    79    77   ar
   167    69    67    1
   168    90    83   am
   169    71    72    1
   170    83    82    1
   171    68    67    1
   172    72    81   am
   173    67    64    1
   174    81    82    1
   175    82    85    1
   176    64    63    1
   177    64    65    1
   178    66    65    2
   179    85    86    1
   180    86    87    1
   181    87    89   ar
   182    87    88   ar
