@<TRIPOS>MOLECULE
tmp/1w8fC00.pdb
 109 104 0 0 0
SMALL
GASTEIGER

@<TRIPOS>ATOM
      1  N         28.5430   16.3260   18.7990 N.3    21  ASN21      -0.1225
      2  CA        29.6360   15.6100   18.2260 C.3    21  ASN21       0.1785
      3  C         30.5170   16.5600   17.3620 C.2    21  ASN21       0.2598
      4  O         30.5200   16.5050   16.1550 O.2    21  ASN21      -0.2718
      5  CB        29.1900   14.4510   17.3130 C.3    21  ASN21       0.1169
      6  CG        28.5050   13.3520   18.0830 C.2    21  ASN21       0.2627
      7  OD1       29.1570   12.5010   18.6910 O.2    21  ASN21      -0.2716
      8  ND2       27.1650   13.3780   18.0510 N.am   21  ASN21      -0.0877
      9  N         31.2480   17.4470   18.0540 N.am   22  SER22      -0.1938
     10  CA        31.9830   18.5290   17.3630 C.3    22  SER22       0.2055
     11  C         32.9460   19.1500   18.3600 C.2    22  SER22       0.2644
     12  O         32.6810   19.1620   19.5490 O.2    22  SER22      -0.2714
     13  CB        31.0050   19.5790   16.9040 C.3    22  SER22       0.2130
     14  OG        31.7080   20.7040   16.4080 O.3    22  SER22      -0.2179
     15  N         34.0400   19.7230   17.8710 N.am   23  SER23      -0.1935
     16  CA        34.8780   20.5180   18.7370 C.3    23  SER23       0.2055
     17  C         34.2450   21.8340   19.1380 C.2    23  SER23       0.2643
     18  O         34.7140   22.4460   20.1030 O.2    23  SER23      -0.2714
     19  CB        36.2420   20.7390   18.1180 C.3    23  SER23       0.2130
     20  OG        36.1920   21.3740   16.8910 O.3    23  SER23      -0.2179
     21  N         33.2570   22.3070   18.4040 N.am   24  GLY24      -0.1954
     22  CA        32.6150   23.5780   18.6800 C.3    24  GLY24       0.1869
     23  C         31.4690   23.4410   19.6780 C.2    24  GLY24       0.2309
     24  O         30.7370   22.4670   19.6620 O.2    24  GLY24      -0.2863
     25  N         32.6220   15.6730   21.7940 N.3    45  THR45      -0.1218
     26  CA        32.9410   14.8410   20.6270 C.3    45  THR45       0.1862
     27  C         32.5430   13.3890   20.8350 C.2    45  THR45       0.2287
     28  O         32.9240   12.5460   20.0290 O.2    45  THR45      -0.2866
     29  CB        34.3890   14.9420   20.1720 C.3    45  THR45       0.1770
     30  OG1       35.2180   14.7430   21.3110 O.3    45  THR45      -0.2211
     31  CG2       34.6650   16.3230   19.5710 C.3    45  THR45       0.0375
     32  N         26.8420   27.6420   15.9440 N.3    69  VAL69      -0.1231
     33  CA        28.1590   27.3110   16.4550 C.3    69  VAL69       0.1692
     34  C         29.0660   28.4760   16.0660 C.2    69  VAL69       0.2592
     35  O         29.0970   28.8990   14.9140 O.2    69  VAL69      -0.2718
     36  CB        28.6970   26.0110   15.8370 C.3    69  VAL69       0.0266
     37  CG1       30.0360   25.6450   16.3870 C.3    69  VAL69       0.0020
     38  CG2       27.7150   24.8680   15.9700 C.3    69  VAL69       0.0020
     39  N         29.8080   28.9880   17.0330 N.am   70  ASN70      -0.1974
     40  CA        30.6340   30.1830   16.8740 C.3    70  ASN70       0.1691
     41  C         29.9470   31.2670   16.0300 C.2    70  ASN70       0.2292
     42  O         30.5150   31.8510   15.0660 O.2    70  ASN70      -0.2864
     43  CB        32.0550   29.8080   16.4030 C.3    70  ASN70       0.1221
     44  CG        32.1030   28.9450   15.0490 C.2    70  ASN70       0.2853
     45  OD1       32.5430   27.7420   15.0110 O.2    70  ASN70      -0.2655
     46  ND2       31.7120   29.5770   13.9570 N.2    70  ASN70      -0.0778
     47  N         27.4930   31.1240   13.9470 N.3    72  ARG72      -0.1245
     48  CA        27.0900   30.8020   12.5920 C.3    72  ARG72       0.1563
     49  C         26.0460   29.7330   12.6260 C.2    72  ARG72       0.2260
     50  O         26.2840   28.7050   13.2110 O.2    72  ARG72      -0.2867
     51  CB        28.3120   30.2050   11.7660 C.3    72  ARG72       0.0305
     52  CG        29.5120   31.1590   11.5440 C.3    72  ARG72       0.0449
     53  CD        30.9190   30.5540   11.3110 C.3    72  ARG72       0.1965
     54  NE        31.1190   29.5610   12.3690 N.pl3  72  ARG72      -0.0788
     55  CZ        32.1210   28.7400   12.4590 C.cat  72  ARG72       0.5059
     56  NH1       33.0470   28.6830   11.4960 N.pl3  72  ARG72       0.1495
     57  NH2       32.1990   27.9380   13.5220 N.2    72  ARG72       0.1279
     58  N         25.3130   20.4770   10.6000 N.3    95  GLU95      -0.1231
     59  CA        26.6900   20.5220   10.1610 C.3    95  GLU95       0.1699
     60  C         27.2530   21.9110   10.3690 C.2    95  GLU95       0.2592
     61  O         26.7270   22.8910    9.8230 O.2    95  GLU95      -0.2718
     62  CB        26.7860   20.0970    8.7150 C.3    95  GLU95       0.0402
     63  CG        28.1870   20.1560    8.1350 C.3    95  GLU95       0.1161
     64  CD        29.1720   19.3260    8.9430 C.2    95  GLU95       0.3649
     65  OE1       28.8930   18.1500    9.2330 O.co2  95  GLU95      -0.2457
     66  OE2       30.2230   19.8760    9.3650 O.co2  95  GLU95      -0.2457
     67  N         28.3150   21.9860   11.1730 N.am   96  ASP96      -0.1960
     68  CA        28.9690   23.2400   11.5280 C.3    96  ASP96       0.1840
     69  C         30.2740   23.4600   10.8020 C.2    96  ASP96       0.2623
     70  O         30.9230   24.4850   11.0220 O.2    96  ASP96      -0.2715
     71  CB        29.1280   23.3220   13.0610 C.3    96  ASP96       0.1450
     72  CG        30.1380   22.3810   13.6210 C.2    96  ASP96       0.3671
     73  OD1       31.1190   22.0180   12.8850 O.co2  96  ASP96      -0.2456
     74  OD2       30.0440   22.0570   14.8090 O.co2  96  ASP96      -0.2456
     75  N         30.6670   22.5610    9.9260 N.am   97  GLY97      -0.1940
     76  CA        31.9850   22.5230    9.3510 C.3    97  GLY97       0.2014
     77  C         31.9660   22.0190    7.9280 C.2    97  GLY97       0.2640
     78  O         31.0570   22.3270    7.1500 O.2    97  GLY97      -0.2714
     79  N         33.0060   21.2750    7.6070 N.am   98  THR98      -0.1936
     80  CA        33.3530   20.9380    6.2400 C.3    98  THR98       0.2028
     81  C         33.3850   19.4560    5.9310 C.2    98  THR98       0.2642
     82  O         33.7110   19.0710    4.8350 O.2    98  THR98      -0.2714
     83  CB        34.6320   21.6260    5.8150 C.3    98  THR98       0.1808
     84  OG1       35.6770   21.1790    6.6570 O.3    98  THR98      -0.2208
     85  CG2       34.5220   23.1100    5.8920 C.3    98  THR98       0.0379
     86  N         33.0770   18.6020    6.9100 N.am   99  ASP99      -0.1971
     87  CA        33.1160   17.1750    6.6940 C.3    99  ASP99       0.1709
     88  C         31.7710   16.5640    6.3470 C.2    99  ASP99       0.2293
     89  O         31.7560   15.3650    6.0010 O.2    99  ASP99      -0.2864
     90  CB        33.7650   16.4150    7.8580 C.3    99  ASP99       0.1436
     91  CG        33.0430   16.5900    9.1620 C.2    99  ASP99       0.3671
     92  OD1       32.1150   17.4000    9.2580 O.co2  99  ASP99      -0.2456
     93  OD2       33.4640   15.9220   10.1580 O.co2  99  ASP99      -0.2456
     94  N         29.4820   15.3270    8.1160 N.3   101  ASP101     -0.1239
     95  CA        29.0130   14.2220    8.9500 C.3   101  ASP101      0.1674
     96  C         27.6110   14.4650    9.5160 C.2   101  ASP101      0.2266
     97  O         26.9180   13.5070    9.8800 O.2   101  ASP101     -0.2867
     98  CB        30.0000   13.7600   10.0000 C.3   101  ASP101      0.1410
     99  CG        30.3540   14.7570   11.1050 C.2   101  ASP101      0.3668
    100  OD1       29.9060   15.9120   11.0460 O.co2 101  ASP101     -0.2456
    101  OD2       31.0820   14.3390   12.0480 O.co2 101  ASP101     -0.2456
    102  N         26.8690   17.1790   14.2450 N.3   104  ASP104     -0.1239
    103  CA        27.5890   18.0820   15.1580 C.3   104  ASP104      0.1674
    104  C         26.6920   18.4690   16.3190 C.2   104  ASP104      0.2266
    105  O         27.1580   18.5250   17.4540 O.2   104  ASP104     -0.2867
    106  CB        28.0890   19.2800   14.3410 C.3   104  ASP104      0.1410
    107  CG        29.0520   18.8710   13.2650 C.2   104  ASP104      0.3668
    108  OD1       29.8350   17.8830   13.4490 O.co2 104  ASP104     -0.2456
    109  OD2       29.0650   19.4890   12.1790 O.co2 104  ASP104     -0.2456
@<TRIPOS>BOND
     1    82    81    2
     2    83    85    1
     3    83    80    1
     4    83    84    1
     5    81    80    1
     6    81    86   am
     7    89    88    2
     8    80    79    1
     9    88    87    1
    10    87    86    1
    11    87    90    1
    12    78    77    2
    13    79    77   am
    14    90    91    1
    15    77    76    1
    16    94    95    1
    17    63    62    1
    18    63    64    1
    19    62    59    1
    20    64    65   ar
    21    64    66   ar
    22    95    96    1
    23    95    98    1
    24    91    92   ar
    25    91    93   ar
    26    76    75    1
    27    96    97    2
    28    61    60    2
    29    75    69   am
    30    98    99    1
    31    59    60    1
    32    59    58    1
    33    60    67   am
    34    69    70    2
    35    69    68    1
    36   100    99   ar
    37    99   101   ar
    38    67    68    1
    39    53    52    1
    40    53    54    1
    41    56    55    1
    42    68    71    1
    43    52    51    1
    44    51    48    1
    45   109   107   ar
    46    54    55    1
    47    54    46    1
    48    55    57    2
    49    48    49    1
    50    48    47    1
    51    49    50    2
    52    73    72   ar
    53    71    72    1
    54   107   108   ar
    55   107   106    1
    56    57    45    1
    57    72    74   ar
    58    46    44    2
    59   102   103    1
    60   106   103    1
    61    35    34    2
    62    45    44    1
    63    44    43    1
    64    42    41    2
    65   103   104    1
    66    36    38    1
    67    36    37    1
    68    36    33    1
    69    32    33    1
    70    41    40    1
    71    34    33    1
    72    34    39   am
    73     4     3    2
    74   104   105    2
    75    43    40    1
    76    14    13    1
    77    40    39    1
    78    20    19    1
    79    13    10    1
    80     5     6    1
    81     5     2    1
    82     3     9   am
    83     3     2    1
    84    10     9    1
    85    10    11    1
    86    15    11   am
    87    15    16    1
    88     8     6   am
    89     6     7    2
    90    19    16    1
    91     2     1    1
    92    11    12    2
    93    21    22    1
    94    21    17   am
    95    22    23    1
    96    16    17    1
    97    17    18    2
    98    31    29    1
    99    24    23    2
   100    28    27    2
   101    29    26    1
   102    29    30    1
   103    26    27    1
   104    26    25    1
