@<TRIPOS>MOLECULE
tmp/1w8fB00.pdb
 101 94 0 0 0
SMALL
GASTEIGER

@<TRIPOS>ATOM
      1  N          7.2960   -8.9040   -5.8810 N.3    21  ASN21      -0.1225
      2  CA         8.5730   -9.5920   -5.9430 C.3    21  ASN21       0.1785
      3  C          8.4320  -10.9710   -5.2640 C.2    21  ASN21       0.2598
      4  O          8.9560  -11.2020   -4.1660 O.2    21  ASN21      -0.2718
      5  CB         9.6760   -8.8110   -5.2490 C.3    21  ASN21       0.1169
      6  CG        10.0230   -7.5380   -5.9220 C.2    21  ASN21       0.2627
      7  OD1       10.8070   -7.5360   -6.8960 O.2    21  ASN21      -0.2716
      8  ND2        9.4900   -6.4320   -5.4070 N.am   21  ASN21      -0.0877
      9  N          7.7280  -11.8990   -5.9220 N.am   22  SER22      -0.1938
     10  CA         7.4360  -13.1930   -5.3270 C.3    22  SER22       0.2055
     11  C          6.9090  -14.1080   -6.4220 C.2    22  SER22       0.2644
     12  O          6.3280  -13.6460   -7.4020 O.2    22  SER22      -0.2714
     13  CB         6.3140  -13.0190   -4.2920 C.3    22  SER22       0.2130
     14  OG         5.8860  -14.2780   -3.8180 O.3    22  SER22      -0.2179
     15  N          7.0570  -15.4080   -6.2230 N.am   23  SER23      -0.1935
     16  CA         6.3990  -16.3600   -7.1020 C.3    23  SER23       0.2055
     17  C          4.8980  -16.3900   -6.9080 C.2    23  SER23       0.2643
     18  O          4.1830  -16.8800   -7.8050 O.2    23  SER23      -0.2714
     19  CB         6.9840  -17.7430   -6.9940 C.3    23  SER23       0.2130
     20  OG         6.9300  -18.2500   -5.6960 O.3    23  SER23      -0.2179
     21  N          4.3830  -15.9230   -5.7800 N.am   24  GLY24      -0.1954
     22  CA         2.9690  -15.9590   -5.5160 C.3    24  GLY24       0.1869
     23  C          2.2590  -14.7530   -6.0390 C.2    24  GLY24       0.2309
     24  O          2.7590  -13.6370   -6.0280 O.2    24  GLY24      -0.2863
     25  N          8.4540  -11.3380  -10.2170 N.3    45  THR45      -0.1218
     26  CA         9.6650  -11.4130   -9.4240 C.3    45  THR45       0.1862
     27  C         10.6730  -10.3250   -9.8170 C.2    45  THR45       0.2287
     28  O         11.8470  -10.3920   -9.4200 O.2    45  THR45      -0.2866
     29  CB        10.3170  -12.7720   -9.4530 C.3    45  THR45       0.1770
     30  OG1       10.4310  -13.2150  -10.8090 O.3    45  THR45      -0.2211
     31  CG2        9.5030  -13.7760   -8.6320 C.3    45  THR45       0.0375
     32  N         -1.9230  -13.6180   -0.0430 N.3    69  VAL69      -0.1245
     33  CA        -1.5140  -14.4680   -1.1200 C.3    69  VAL69       0.1561
     34  C         -2.3760  -15.7200   -0.9950 C.2    69  VAL69       0.2260
     35  O         -2.2410  -16.4760   -0.0610 O.2    69  VAL69      -0.2867
     36  CB        -0.0290  -14.8180   -1.0630 C.3    69  VAL69       0.0252
     37  CG1        0.3850  -15.7120   -2.1840 C.3    69  VAL69       0.0019
     38  CG2        0.7790  -13.5240   -1.1260 C.3    69  VAL69       0.0019
     39  N         -3.9430  -16.2430    2.3940 N.3    72  ARG72      -0.1241
     40  CA        -3.0390  -16.2020    3.5110 C.3    72  ARG72       0.1606
     41  C         -2.6210  -14.7610    3.7190 C.2    72  ARG72       0.2264
     42  O         -1.9470  -14.2080    2.8530 O.2    72  ARG72      -0.2867
     43  CB        -1.8250  -17.0170    3.2780 C.3    72  ARG72       0.0562
     44  CG        -0.9140  -16.9760    4.4760 C.2    72  ARG72       0.0159
     45  CD         0.2700  -17.8260    4.3960 C.2    72  ARG72       0.1886
     46  NE         1.2470  -17.6330    5.4690 N.pl3  72  ARG72      -0.0578
     47  CZ         2.5770  -17.4680    5.2640 C.cat  72  ARG72       0.5393
     48  NH1        3.0990  -17.5600    4.0580 N.pl3  72  ARG72       0.1358
     49  NH2        3.4130  -17.2630    6.2780 N.pl3  72  ARG72       0.1358
     50  N          5.6280   -9.9720    3.6510 N.3    95  GLU95      -0.1231
     51  CA         6.3270  -11.2390    3.5360 C.3    95  GLU95       0.1699
     52  C          5.3110  -12.3820    3.4470 C.2    95  GLU95       0.2592
     53  O          4.4400  -12.5300    4.3260 O.2    95  GLU95      -0.2718
     54  CB         7.2480  -11.4550    4.7220 C.3    95  GLU95       0.0402
     55  CG         8.0160  -12.7790    4.7240 C.3    95  GLU95       0.1161
     56  CD         8.8130  -12.9710    3.4790 C.2    95  GLU95       0.3649
     57  OE1        9.5610  -12.0560    3.0650 O.co2  95  GLU95      -0.2457
     58  OE2        8.7060  -14.0620    2.8360 O.co2  95  GLU95      -0.2457
     59  N          5.4530  -13.1670    2.3970 N.am   96  ASP96      -0.1960
     60  CA         4.5450  -14.2910    2.1010 C.3    96  ASP96       0.1840
     61  C          5.2550  -15.6510    2.2910 C.2    96  ASP96       0.2623
     62  O          4.5600  -16.6660    2.1010 O.2    96  ASP96      -0.2715
     63  CB         3.9300  -14.1520    0.7400 C.3    96  ASP96       0.1450
     64  CG         4.8880  -14.3690   -0.3940 C.2    96  ASP96       0.3671
     65  OD1        5.9110  -15.1000   -0.1910 O.co2  96  ASP96      -0.2456
     66  OD2        4.6030  -13.9390   -1.5150 O.co2  96  ASP96      -0.2456
     67  N          6.5240  -15.6870    2.6910 N.am   97  GLY97      -0.1940
     68  CA         7.3530  -16.8810    2.6030 C.3    97  GLY97       0.2014
     69  C          8.3350  -16.9990    3.7540 C.2    97  GLY97       0.2640
     70  O          8.0030  -16.6230    4.8910 O.2    97  GLY97      -0.2714
     71  N          9.5290  -17.5050    3.4700 N.am   98  THR98      -0.1936
     72  CA        10.4840  -17.9260    4.5030 C.3    98  THR98       0.2028
     73  C         11.7930  -17.1760    4.5030 C.2    98  THR98       0.2642
     74  O         12.6280  -17.4490    5.3570 O.2    98  THR98      -0.2714
     75  CB        10.7660  -19.4390    4.3390 C.3    98  THR98       0.1808
     76  OG1       11.4290  -19.6500    3.0870 O.3    98  THR98      -0.2208
     77  CG2        9.5240  -20.2870    4.4000 C.3    98  THR98       0.0379
     78  N         11.9880  -16.2590    3.5690 N.am   99  ASP99      -0.1971
     79  CA        13.2490  -15.6100    3.4170 C.3    99  ASP99       0.1709
     80  C         13.3020  -14.2310    4.0880 C.2    99  ASP99       0.2293
     81  O         14.3840  -13.6440    4.1560 O.2    99  ASP99      -0.2864
     82  CB        13.6620  -15.4980    1.9630 C.3    99  ASP99       0.1436
     83  CG        12.6870  -14.7570    1.0940 C.2    99  ASP99       0.3671
     84  OD1       11.5840  -14.3800    1.5760 O.co2  99  ASP99      -0.2456
     85  OD2       13.0520  -14.4980   -0.0900 O.co2  99  ASP99      -0.2456
     86  N         12.5190  -11.2880    3.1480 N.3   101  ASP101     -0.1239
     87  CA        12.9000  -10.1350    2.3330 C.3   101  ASP101      0.1674
     88  C         11.8580   -9.0180    2.4040 C.2   101  ASP101      0.2266
     89  O         12.2160   -7.8440    2.1340 O.2   101  ASP101     -0.2867
     90  CB        13.3080  -10.5070    0.9090 C.3   101  ASP101      0.1410
     91  CG        12.2530  -11.1170    0.0330 C.2   101  ASP101      0.3668
     92  OD1       11.1350  -11.3830    0.5150 O.co2 101  ASP101     -0.2456
     93  OD2       12.5480  -11.3480   -1.1660 O.co2 101  ASP101     -0.2456
     94  N          7.5950   -8.8670   -0.9900 N.3   104  ASP104     -0.1239
     95  CA         6.8000   -9.7470   -1.8330 C.3   104  ASP104      0.1674
     96  C          5.6780   -8.9820   -2.4930 C.2   104  ASP104      0.2266
     97  O          5.3850   -9.1720   -3.6910 O.2   104  ASP104     -0.2867
     98  CB         6.3390  -10.9370   -0.9920 C.3   104  ASP104      0.1410
     99  CG         7.5270  -11.7510   -0.4910 C.2   104  ASP104      0.3668
    100  OD1        8.5690  -11.8690   -1.1760 O.co2 104  ASP104     -0.2456
    101  OD2        7.4380  -12.2790    0.6280 O.co2 104  ASP104     -0.2456
@<TRIPOS>BOND
     1    30    29    1
     2    25    26    1
     3    27    26    1
     4    27    28    2
     5    29    26    1
     6    29    31    1
     7    18    17    2
     8    12    11    2
     9    16    19    1
    10    16    17    1
    11    16    15    1
    12    19    20    1
    13    17    21   am
    14     7     6    2
    15    11    15   am
    16    11    10    1
    17    23    24    2
    18    23    22    1
    19     2     1    1
    20     2     3    1
    21     2     5    1
    22     9    10    1
    23     9     3   am
    24     6     8   am
    25     6     5    1
    26    21    22    1
    27    10    13    1
    28     3     4    2
    29    13    14    1
    30    97    96    2
    31    96    95    1
    32    37    36    1
    33    95    98    1
    34    95    94    1
    35    66    64   ar
    36   100    99   ar
    37    93    91   ar
    38    38    36    1
    39    33    36    1
    40    33    34    1
    41    33    32    1
    42    34    35    2
    43    98    99    1
    44    99   101   ar
    45    64    65   ar
    46    64    63    1
    47    85    83   ar
    48    91    92   ar
    49    91    90    1
    50    63    60    1
    51    90    87    1
    52    83    84   ar
    53    83    82    1
    54    82    79    1
    55    60    61    1
    56    60    59    1
    57    62    61    2
    58    89    88    2
    59    61    67   am
    60    87    88    1
    61    87    86    1
    62    39    40    1
    63    59    52   am
    64    68    67    1
    65    68    69    1
    66    58    56   ar
    67    42    41    2
    68    57    56   ar
    69    76    75    1
    70    43    40    1
    71    43    44    1
    72    79    78    1
    73    79    80    1
    74    52    51    1
    75    52    53    2
    76    71    69   am
    77    71    72    1
    78    56    55    1
    79    40    41    1
    80    51    50    1
    81    51    54    1
    82    78    73   am
    83    69    70    2
    84    48    47    1
    85    80    81    2
    86    75    77    1
    87    75    72    1
    88    45    44    2
    89    45    46    1
    90    73    72    1
    91    73    74    2
    92    54    55    1
    93    47    46    2
    94    47    49    1
