@<TRIPOS>MOLECULE
tmp/1w8fA00.pdb
 101 94 0 0 0
SMALL
GASTEIGER

@<TRIPOS>ATOM
      1  N          8.1230    6.5250   29.2360 N.3    21  ASN21      -0.1225
      2  CA         6.8280    7.1480   29.2870 C.3    21  ASN21       0.1785
      3  C          5.7440    6.1330   29.6950 C.2    21  ASN21       0.2598
      4  O          4.9280    5.6940   28.8840 O.2    21  ASN21      -0.2718
      5  CB         6.4040    7.7470   27.9390 C.3    21  ASN21       0.1169
      6  CG         7.2390    8.9110   27.5430 C.2    21  ASN21       0.2627
      7  OD1        7.0190   10.0510   28.0550 O.2    21  ASN21      -0.2716
      8  ND2        8.2190    8.6710   26.6630 N.am   21  ASN21      -0.0877
      9  N          5.7510    5.7510   30.9510 N.am   22  SER22      -0.1938
     10  CA         4.8860    4.6880   31.4520 C.3    22  SER22       0.2055
     11  C          4.8960    4.7190   32.9650 C.2    22  SER22       0.2644
     12  O          5.8970    5.1160   33.5920 O.2    22  SER22      -0.2714
     13  CB         5.4040    3.3360   30.9620 C.3    22  SER22       0.2130
     14  OG         4.6400    2.2950   31.5820 O.3    22  SER22      -0.2179
     15  N          3.8230    4.2390   33.6040 N.am   23  SER23      -0.1935
     16  CA         3.8590    4.0150   35.0420 C.3    23  SER23       0.2055
     17  C          4.7180    2.8320   35.4200 C.2    23  SER23       0.2643
     18  O          5.0880    2.6950   36.5980 O.2    23  SER23      -0.2714
     19  CB         2.4720    3.9140   35.6260 C.3    23  SER23       0.2130
     20  OG         1.7150    2.8920   35.0910 O.3    23  SER23      -0.2179
     21  N          5.0030    1.9350   34.4970 N.am   24  GLY24      -0.1954
     22  CA         5.8020    0.7720   34.7670 C.3    24  GLY24       0.1869
     23  C          7.2850    1.0670   34.6170 C.2    24  GLY24       0.2309
     24  O          7.6720    1.8180   33.7430 O.2    24  GLY24      -0.2863
     25  N          6.7580    9.1780   33.4470 N.3    45  THR45      -0.1218
     26  CA         5.7150    9.5180   32.4780 C.3    45  THR45       0.1862
     27  C          5.9530   10.8640   31.8230 C.2    45  THR45       0.2287
     28  O          5.0310   11.4670   31.2610 O.2    45  THR45      -0.2866
     29  CB         4.3060    9.4050   33.0470 C.3    45  THR45       0.1770
     30  OG1        4.1850   10.0820   34.2870 O.3    45  THR45      -0.2211
     31  CG2        3.9350    7.9700   33.3030 C.3    45  THR45       0.0375
     32  N          9.1440   -5.0580   31.1170 N.3    69  VAL69      -0.1245
     33  CA         8.5080   -4.3680   32.2140 C.3    69  VAL69       0.1561
     34  C          7.9840   -5.4510   33.1160 C.2    69  VAL69       0.2260
     35  O          7.2530   -6.3530   32.7080 O.2    69  VAL69      -0.2867
     36  CB         7.3270   -3.5260   31.7580 C.3    69  VAL69       0.0252
     37  CG1        6.6540   -2.8000   32.8760 C.3    69  VAL69       0.0019
     38  CG2        7.8410   -2.4890   30.7630 C.3    69  VAL69       0.0019
     39  N          8.1880   -8.9050   31.7570 N.3    72  ARG72      -0.1245
     40  CA         7.3830   -9.2240   30.5870 C.3    72  ARG72       0.1563
     41  C          7.9290   -8.4660   29.3910 C.2    72  ARG72       0.2260
     42  O          8.0550   -7.2610   29.4510 O.2    72  ARG72      -0.2867
     43  CB         5.9650   -8.7150   30.9060 C.3    72  ARG72       0.0307
     44  CG         5.1700   -9.3830   32.0020 C.3    72  ARG72       0.0489
     45  CD         3.6830   -8.9720   31.9680 C.3    72  ARG72       0.2205
     46  NE         3.0440   -8.9190   33.2900 N.pl3  72  ARG72      -0.0865
     47  CZ         3.0250   -7.8460   34.0880 C.cat  72  ARG72       0.5346
     48  NH1        3.6370   -6.7090   33.7240 N.pl3  72  ARG72       0.1354
     49  NH2        2.4060   -7.9070   35.2670 N.pl3  72  ARG72       0.1354
     50  N          5.6060   -1.1300   23.7120 N.3    95  GLU95      -0.1231
     51  CA         4.3050   -1.0620   24.3570 C.3    95  GLU95       0.1699
     52  C          4.2410   -2.1110   25.4400 C.2    95  GLU95       0.2592
     53  O          4.4210   -3.3040   25.1960 O.2    95  GLU95      -0.2718
     54  CB         3.1860   -1.2820   23.3260 C.3    95  GLU95       0.0402
     55  CG         1.7830   -1.2590   23.9360 C.3    95  GLU95       0.1161
     56  CD         1.5000   -0.0040   24.7220 C.2    95  GLU95       0.3649
     57  OE1        1.7350    1.1160   24.1750 O.co2  95  GLU95      -0.2457
     58  OE2        0.9980   -0.0860   25.8670 O.co2  95  GLU95      -0.2457
     59  N          3.9240   -1.6680   26.6620 N.am   96  ASP96      -0.1960
     60  CA         3.8180   -2.5120   27.8520 C.3    96  ASP96       0.1840
     61  C          2.3890   -2.7270   28.3250 C.2    96  ASP96       0.2623
     62  O          2.2100   -3.4600   29.2750 O.2    96  ASP96      -0.2715
     63  CB         4.7070   -1.9130   28.9490 C.3    96  ASP96       0.1450
     64  CG         4.1960   -0.6560   29.5880 C.2    96  ASP96       0.3671
     65  OD1        2.9310   -0.4290   29.5780 O.co2  96  ASP96      -0.2456
     66  OD2        5.0330    0.0810   30.1530 O.co2  96  ASP96      -0.2456
     67  N          1.4170   -2.1540   27.6610 N.am   97  GLY97      -0.1940
     68  CA         0.0690   -2.0460   28.1540 C.3    97  GLY97       0.2014
     69  C         -0.9400   -2.2010   27.0610 C.2    97  GLY97       0.2640
     70  O         -0.7760   -2.9750   26.1330 O.2    97  GLY97      -0.2714
     71  N         -2.0200   -1.4360   27.2020 N.am   98  THR98      -0.1936
     72  CA        -3.2080   -1.6100   26.3590 C.3    98  THR98       0.2028
     73  C         -3.5590   -0.4180   25.4730 C.2    98  THR98       0.2642
     74  O         -4.4850   -0.5050   24.6820 O.2    98  THR98      -0.2714
     75  CB        -4.4280   -1.9580   27.2180 C.3    98  THR98       0.1808
     76  OG1       -4.6140   -0.9260   28.1870 O.3    98  THR98      -0.2208
     77  CG2       -4.1490   -3.2450   27.9930 C.3    98  THR98       0.0379
     78  N         -2.8610    0.7010   25.6030 N.am   99  ASP99      -0.1971
     79  CA        -3.2450    1.9030   24.9020 C.3    99  ASP99       0.1709
     80  C         -2.5510    2.0850   23.5440 C.2    99  ASP99       0.2293
     81  O         -2.8950    2.9830   22.8270 O.2    99  ASP99      -0.2864
     82  CB        -3.0300    3.1760   25.7720 C.3    99  ASP99       0.1436
     83  CG        -1.6160    3.4040   26.1890 C.2    99  ASP99       0.3671
     84  OD1       -0.7460    2.5190   25.9700 O.co2  99  ASP99      -0.2456
     85  OD2       -1.3200    4.5100   26.7430 O.co2  99  ASP99      -0.2456
     86  N          0.2200    3.3710   22.6550 N.3   101  ASP101     -0.1239
     87  CA         0.9980    4.5570   22.3940 C.3   101  ASP101      0.1674
     88  C          2.4370    4.2760   21.9780 C.2   101  ASP101      0.2266
     89  O          3.0790    5.0830   21.3220 O.2   101  ASP101     -0.2867
     90  CB         0.9120    5.6040   23.5120 C.3   101  ASP101      0.1410
     91  CG         1.4900    5.2030   24.8720 C.2   101  ASP101      0.3668
     92  OD1        1.8950    4.0570   25.0290 O.co2 101  ASP101     -0.2456
     93  OD2        1.4800    6.1060   25.7420 O.co2 101  ASP101     -0.2456
     94  N          6.4030    3.6010   25.6450 N.3   104  ASP104     -0.1239
     95  CA         6.6090    3.2990   27.0640 C.3   104  ASP104      0.1674
     96  C          8.0980    3.2320   27.4120 C.2   104  ASP104      0.2266
     97  O          8.5080    3.7530   28.4350 O.2   104  ASP104     -0.2867
     98  CB         5.8480    2.0020   27.3860 C.3   104  ASP104      0.1410
     99  CG         4.3560    2.1220   27.1420 C.2   104  ASP104      0.3668
    100  OD1        3.7820    3.2340   27.3840 O.co2 104  ASP104     -0.2456
    101  OD2        3.7200    1.1380   26.7420 O.co2 104  ASP104     -0.2456
@<TRIPOS>BOND
     1    89    88    2
     2    88    87    1
     3    87    86    1
     4    87    90    1
     5    81    80    2
     6    54    55    1
     7    54    51    1
     8    90    91    1
     9    80    79    1
    10    50    51    1
    11    55    56    1
    12    57    56   ar
    13    51    52    1
    14    74    73    2
    15    56    58   ar
    16    91    92   ar
    17    91    93   ar
    18    79    78    1
    19    79    82    1
    20    53    52    2
    21    52    59   am
    22    73    78   am
    23    73    72    1
    24    94    95    1
    25    82    83    1
    26    84    83   ar
    27    70    69    2
    28    83    85   ar
    29    72    71    1
    30    72    75    1
    31    59    60    1
    32     8     6   am
    33   101    99   ar
    34    69    71   am
    35    69    68    1
    36    95    98    1
    37    95    96    1
    38    99   100   ar
    39    99    98    1
    40    75    77    1
    41    75    76    1
    42    96    97    2
    43     6     5    1
    44     6     7    2
    45    67    68    1
    46    67    61   am
    47    60    61    1
    48    60    63    1
    49     5     2    1
    50    61    62    2
    51     4     3    2
    52    63    64    1
    53     1     2    1
    54     2     3    1
    55    41    42    2
    56    41    40    1
    57    65    64   ar
    58    64    66   ar
    59     3     9   am
    60    40    43    1
    61    40    39    1
    62    38    36    1
    63    43    44    1
    64     9    10    1
    65    13    10    1
    66    13    14    1
    67    32    33    1
    68    28    27    2
    69    10    11    1
    70    36    33    1
    71    36    37    1
    72    27    26    1
    73    45    44    1
    74    45    46    1
    75    33    34    1
    76    26    29    1
    77    26    25    1
    78    35    34    2
    79    11    12    2
    80    11    15   am
    81    29    31    1
    82    29    30    1
    83    46    47    2
    84    15    16    1
    85    48    47    1
    86    24    23    2
    87    47    49    1
    88    21    22    1
    89    21    17   am
    90    23    22    1
    91    16    17    1
    92    16    19    1
    93    20    19    1
    94    17    18    2
