@<TRIPOS>MOLECULE
tmp/1w8gA00.pdb
 92 84 0 0 0
SMALL
GASTEIGER

@<TRIPOS>ATOM
      1  N         83.3860   -1.8630   12.1180 N.3    32  VAL32      -0.1245
      2  CA        83.1800   -2.2560   10.7300 C.3    32  VAL32       0.1561
      3  C         82.9070   -3.7550   10.6570 C.2    32  VAL32       0.2260
      4  O         83.7850   -4.5810   10.9130 O.2    32  VAL32      -0.2867
      5  CB        84.3740   -1.8370    9.8530 C.3    32  VAL32       0.0252
      6  CG1       84.1580   -2.2630    8.4100 C.3    32  VAL32       0.0019
      7  CG2       84.5500   -0.3230    9.9380 C.3    32  VAL32       0.0019
      8  N         81.5960   -5.5080    7.9740 N.3    34  LYS34      -0.1245
      9  CA        81.5340   -6.1030    6.6410 C.3    34  LYS34       0.1561
     10  C         82.0880   -7.5250    6.6610 C.2    34  LYS34       0.2260
     11  O         83.0820   -7.7960    7.3220 O.2    34  LYS34      -0.2867
     12  CB        82.2710   -5.2510    5.5940 C.3    34  LYS34       0.0271
     13  CG        83.7860   -5.1640    5.7600 C.3    34  LYS34       0.0035
     14  CD        84.4460   -4.7560    4.4550 C.3    34  LYS34       0.0206
     15  CE        85.9390   -4.5140    4.6290 C.3    34  LYS34       0.1093
     16  NZ        86.2020   -3.1010    4.9790 N.3    34  LYS34      -0.1314
     17  N         79.9880   -2.0320    4.0760 N.3    55  ASN55      -0.1240
     18  CA        80.5560   -1.6500    2.7790 C.3    55  ASN55       0.1653
     19  C         79.7460   -2.0770    1.5690 C.2    55  ASN55       0.2266
     20  O         79.9280   -1.5160    0.4900 O.2    55  ASN55      -0.2867
     21  CB        81.9560   -2.2420    2.6210 C.3    55  ASN55       0.1155
     22  CG        82.9710   -1.5600    3.4970 C.2    55  ASN55       0.2627
     23  OD1       82.9460   -1.7060    4.7240 O.2    55  ASN55      -0.2716
     24  ND2       83.8760   -0.8050    2.8770 N.am   55  ASN55      -0.0877
     25  N         79.8640    2.8250    4.2240 N.3    80  ILE80      -0.1245
     26  CA        81.2360    3.2940    4.0450 C.3    80  ILE80       0.1561
     27  C         81.9270    2.6970    2.8170 C.2    80  ILE80       0.2260
     28  O         83.1410    2.8410    2.6590 O.2    80  ILE80      -0.2867
     29  CB        82.0830    3.0330    5.3210 C.3    80  ILE80       0.0252
     30  CG1       82.1980    1.5400    5.6380 C.3    80  ILE80       0.0019
     31  CG2       81.4720    3.7580    6.5010 C.3    80  ILE80       0.0019
     32  CD1       83.1810    1.2060    6.7770 C.3    80  ILE80       0.0001
     33  N         85.4940   12.3850    4.8900 N.3   162  MET162     -0.1245
     34  CA        86.1020   11.0700    5.0930 C.3   162  MET162      0.1570
     35  C         87.2690   10.9020    4.1440 C.2   162  MET162      0.2261
     36  O         87.2670   11.4740    3.0520 O.2   162  MET162     -0.2867
     37  CB        85.0660    9.9660    4.8500 C.3   162  MET162      0.0387
     38  CG        85.5640    8.5450    5.1450 C.3   162  MET162      0.0595
     39  SD        86.3930    7.7150    3.7770 S.3   162  MET162     -0.1393
     40  CE        85.0470    6.8550    3.0180 C.3   162  MET162      0.0692
     41  N         90.2780    7.5590    2.9960 N.3   164  ILE164     -0.1245
     42  CA        91.0280    6.3210    3.1330 C.3   164  ILE164      0.1561
     43  C         92.3660    6.6030    2.4650 C.2   164  ILE164      0.2260
     44  O         92.5040    6.4400    1.2560 O.2   164  ILE164     -0.2867
     45  CB        90.3300    5.1260    2.4350 C.3   164  ILE164      0.0252
     46  CG1       88.9170    4.9260    2.9770 C.3   164  ILE164      0.0019
     47  CG2       91.1340    3.8460    2.6350 C.3   164  ILE164      0.0019
     48  CD1       88.0130    4.1480    2.0590 C.3   164  ILE164      0.0001
     49  N         92.1450    3.9110   10.7040 N.3   202  MET202     -0.1230
     50  CA        91.8000    2.5200   10.9450 C.3   202  MET202      0.1702
     51  C         92.8320    1.9870   11.9460 C.2   202  MET202      0.2593
     52  O         93.5470    2.7800   12.5730 O.2   202  MET202     -0.2718
     53  CB        91.7860    1.7540    9.6130 C.3   202  MET202      0.0401
     54  CG        90.9020    2.4220    8.5480 C.3   202  MET202      0.0596
     55  SD        91.0000    1.6220    6.9310 S.3   202  MET202     -0.1393
     56  CE        89.7000    2.3660    6.0680 C.3   202  MET202      0.0692
     57  N         92.9220    0.6720   12.1240 N.am  203  SER203     -0.1952
     58  CA        93.7930    0.1120   13.1730 C.3   203  SER203      0.1924
     59  C         95.2560    0.5150   13.0540 C.2   203  SER203      0.2314
     60  O         95.8790    0.9120   14.0450 O.2   203  SER203     -0.2863
     61  CB        93.6850   -1.4120   13.2010 C.3   203  SER203      0.2116
     62  OG        92.3810   -1.7990   13.5920 O.3   203  SER203     -0.2180
     63  N         87.5610    3.7750   12.1210 N.3   218  ARG218     -0.1231
     64  CA        86.8120    2.6520   11.5630 C.3   218  ARG218      0.1694
     65  C         87.6150    1.3690   11.7520 C.2   218  ARG218      0.2592
     66  O         88.6640    1.2080   11.1530 O.2   218  ARG218     -0.2718
     67  CB        86.5200    2.9040   10.0810 C.3   218  ARG218      0.0321
     68  CG        85.7890    4.2050    9.8330 C.3   218  ARG218      0.0489
     69  CD        85.5120    4.4600    8.3400 C.3   218  ARG218      0.2205
     70  NE        86.6960    4.3030    7.5130 N.pl3 218  ARG218     -0.0865
     71  CZ        87.5730    5.2520    7.1830 C.cat 218  ARG218      0.5346
     72  NH1       87.4590    6.4980    7.5720 N.pl3 218  ARG218      0.1354
     73  NH2       88.5970    4.9290    6.4300 N.pl3 218  ARG218      0.1354
     74  N         87.1210    0.4740   12.6100 N.am  219  ILE219     -0.1966
     75  CA        87.8620   -0.7110   13.0260 C.3   219  ILE219      0.1727
     76  C         87.0600   -1.9810   12.7660 C.2   219  ILE219      0.2617
     77  O         85.9320   -2.1140   13.2370 O.2   219  ILE219     -0.2715
     78  CB        88.1800   -0.6470   14.5530 C.3   219  ILE219      0.0290
     79  CG1       88.7890    0.7150   14.9430 C.3   219  ILE219      0.0022
     80  CG2       89.0770   -1.7970   14.9610 C.3   219  ILE219      0.0023
     81  CD1       90.1690    0.9810   14.3780 C.3   219  ILE219      0.0001
     82  N         87.6590   -2.9250   12.0420 N.am  220  GLY220     -0.1940
     83  CA        87.0000   -4.1780   11.7030 C.3   220  GLY220      0.2014
     84  C         87.6740   -5.3780   12.3330 C.2   220  GLY220      0.2639
     85  O         87.2100   -5.9000   13.3390 O.2   220  GLY220     -0.2714
     86  N         88.7870   -5.8050   11.7420 N.am  221  THR221     -0.1950
     87  CA        89.4740   -7.0320   12.1590 C.3   221  THR221      0.1897
     88  C         89.8220   -7.0690   13.6510 C.2   221  THR221      0.2313
     89  O         89.6510   -8.1050   14.2970 O.2   221  THR221     -0.2863
     90  CB        90.7360   -7.2760   11.2930 C.3   221  THR221      0.1794
     91  OG1       90.3230   -7.5180    9.9420 O.3   221  THR221     -0.2208
     92  CG2       91.5250   -8.4760   11.7830 C.3   221  THR221      0.0378
@<TRIPOS>BOND
     1    20    19    2
     2    44    43    2
     3    19    18    1
     4    48    46    1
     5    45    47    1
     6    45    46    1
     7    45    42    1
     8    43    42    1
     9    21    18    1
    10    21    22    1
    11    28    27    2
    12    18    17    1
    13    27    26    1
    14    24    22   am
    15    41    42    1
    16    40    39    1
    17    36    35    2
    18    22    23    2
    19    39    38    1
    20    26    25    1
    21    26    29    1
    22    35    34    1
    23    14    15    1
    24    14    13    1
    25    15    16    1
    26    37    34    1
    27    37    38    1
    28    33    34    1
    29    29    30    1
    30    29    31    1
    31    12    13    1
    32    12     9    1
    33    30    32    1
    34    56    55    1
    35    73    71    1
    36     9    10    1
    37     9     8    1
    38    10    11    2
    39    55    54    1
    40    71    70    2
    41    71    72    1
    42    70    69    1
    43    69    68    1
    44     6     5    1
    45    54    53    1
    46    53    50    1
    47    68    67    1
    48     5     7    1
    49     5     2    1
    50    91    90    1
    51    67    64    1
    52     3     2    1
    53     3     4    2
    54    49    50    1
    55     2     1    1
    56    50    51    1
    57    66    65    2
    58    90    92    1
    59    90    87    1
    60    64    65    1
    61    64    63    1
    62    83    82    1
    63    83    84    1
    64    86    87    1
    65    86    84   am
    66    65    74   am
    67    51    57   am
    68    51    52    2
    69    82    76   am
    70    57    58    1
    71    87    88    1
    72    84    85    2
    73    74    75    1
    74    76    75    1
    75    76    77    2
    76    75    78    1
    77    59    58    1
    78    59    60    2
    79    58    61    1
    80    61    62    1
    81    88    89    2
    82    81    79    1
    83    78    79    1
    84    78    80    1
