@<TRIPOS>MOLECULE
tmp/1w8lA00.pdb
 89 83 0 0 0
SMALL
GASTEIGER

@<TRIPOS>ATOM
      1  N          6.6800   63.7500   60.7840 N.3    55  ARG55      -0.1245
      2  CA         5.3520   63.7460   60.1840 C.3    55  ARG55       0.1565
      3  C          4.3690   63.0350   61.0980 C.2    55  ARG55       0.2260
      4  O          4.5000   61.8400   61.3390 O.2    55  ARG55      -0.2867
      5  CB         5.3670   63.0660   58.8100 C.3    55  ARG55       0.0334
      6  CG         4.0750   63.2780   58.0230 C.3    55  ARG55       0.0509
      7  CD         4.1280   62.6940   56.6160 C.2    55  ARG55       0.0957
      8  NE         5.2640   62.6770   55.9500 N.2    55  ARG55      -0.1514
      9  CZ         2.7130   62.7780   54.5800 C.2    55  ARG55       0.2435
     10  NH1        1.7140   63.3460   53.9170 N.pl3  55  ARG55      -0.1217
     11  NH2        3.3650   61.7570   54.0370 N.pl3  55  ARG55      -0.1217
     12  N          0.2160   62.6410   61.5720 N.3    57  ILE57      -0.1245
     13  CA        -1.1280   62.8730   61.0460 C.3    57  ILE57       0.1561
     14  C         -2.1590   62.2520   61.9810 C.2    57  ILE57       0.2260
     15  O         -2.2080   61.0250   62.1420 O.2    57  ILE57      -0.2867
     16  CB        -1.3040   62.2740   59.6160 C.3    57  ILE57       0.0252
     17  CG1       -0.2890   62.8960   58.6480 C.3    57  ILE57       0.0019
     18  CG2       -2.7310   62.5280   59.1070 C.3    57  ILE57       0.0019
     19  CD1       -0.3210   62.3120   57.2490 C.3    57  ILE57       0.0001
     20  N         -4.1560   58.8130   61.9320 N.3    60  PHE60      -0.1227
     21  CA        -3.4080   58.0270   60.9530 C.3    60  PHE60       0.1736
     22  C         -2.1270   57.4240   61.5480 C.2    60  PHE60       0.2595
     23  O         -2.1040   56.2410   61.9030 O.2    60  PHE60      -0.2718
     24  CB        -3.0920   58.9030   59.7270 C.3    60  PHE60       0.0547
     25  CG        -2.4460   58.1670   58.5720 C.ar   60  PHE60      -0.0202
     26  CD1       -1.9510   58.8790   57.4880 C.ar   60  PHE60      -0.0042
     27  CD2       -2.3440   56.7830   58.5540 C.ar   60  PHE60      -0.0042
     28  CE1       -1.3690   58.2250   56.4050 C.ar   60  PHE60      -0.0003
     29  CE2       -1.7620   56.1190   57.4730 C.ar   60  PHE60      -0.0003
     30  CZ        -1.2760   56.8410   56.3980 C.ar   60  PHE60      -0.0000
     31  N         -1.0700   58.2240   61.6680 N.am   61  MET61      -0.1979
     32  CA         0.1890   57.7130   62.2050 C.3    61  MET61       0.1605
     33  C          1.2170   58.7760   62.5710 C.2    61  MET61       0.2287
     34  O          1.0680   59.9530   62.2300 O.2    61  MET61      -0.2864
     35  CB         0.8210   56.7270   61.2080 C.3    61  MET61       0.0413
     36  CG         1.1200   57.2890   59.8100 C.3    61  MET61       0.0598
     37  SD         2.6450   58.2770   59.7110 S.3    61  MET61      -0.1393
     38  CE         2.0470   59.8000   58.9900 C.3    61  MET61       0.0692
     39  N          5.2430   59.3870   62.1620 N.3    63  GLN63      -0.1245
     40  CA         6.4300   58.9410   61.4300 C.3    63  GLN63       0.1566
     41  C          7.7260   59.6010   61.9180 C.2    63  GLN63       0.2260
     42  O          7.7570   60.8010   62.1810 O.2    63  GLN63      -0.2867
     43  CB         6.2420   59.2000   59.9260 C.3    63  GLN63       0.0367
     44  CG         7.3920   58.7260   59.0350 C.3    63  GLN63       0.0905
     45  CD         7.1790   59.0730   57.5740 C.2    63  GLN63       0.2608
     46  OE1        6.0910   59.5050   57.1780 O.2    63  GLN63      -0.2717
     47  NE2        8.2140   58.8880   56.7620 N.am   63  GLN63      -0.0878
     48  N          8.5330   52.8240   57.0920 N.3   101  ALA101     -0.1231
     49  CA         8.2280   53.8590   56.1140 C.3   101  ALA101      0.1694
     50  C          9.1640   53.5810   54.9270 C.2   101  ALA101      0.2592
     51  O         10.2050   52.9390   55.0930 O.2   101  ALA101     -0.2718
     52  CB         8.5080   55.2340   56.6980 C.3   101  ALA101      0.0304
     53  N          8.7860   54.0130   53.7290 N.am  102  ASN102     -0.1974
     54  CA         9.6330   53.7870   52.5660 C.3   102  ASN102      0.1688
     55  C          9.3250   54.7020   51.3780 C.2   102  ASN102      0.2292
     56  O          8.4470   55.5570   51.4470 O.2   102  ASN102     -0.2864
     57  CB         9.6090   52.2980   52.1460 C.3   102  ASN102      0.1181
     58  CG         8.2270   51.8120   51.7130 C.2   102  ASN102      0.2629
     59  OD1        7.7190   50.8090   52.2230 O.2   102  ASN102     -0.2716
     60  ND2        7.6300   52.5010   50.7520 N.am  102  ASN102     -0.0877
     61  N          6.9240   54.2160   61.3300 N.3   113  PHE113     -0.1241
     62  CA         5.7270   54.9140   61.7670 C.3   113  PHE113      0.1605
     63  C          4.8930   54.0950   62.7430 C.2   113  PHE113      0.2264
     64  O          4.9180   52.8580   62.7320 O.2   113  PHE113     -0.2867
     65  CB         4.8760   55.4150   60.5810 C.3   113  PHE113      0.0534
     66  CG         4.2940   54.3290   59.7140 C.ar  113  PHE113     -0.0203
     67  CD1        5.0370   53.7680   58.6780 C.ar  113  PHE113     -0.0042
     68  CD2        2.9700   53.9200   59.8840 C.ar  113  PHE113     -0.0042
     69  CE1        4.4640   52.8200   57.8150 C.ar  113  PHE113     -0.0003
     70  CE2        2.3910   52.9740   59.0270 C.ar  113  PHE113     -0.0003
     71  CZ         3.1400   52.4250   57.9920 C.ar  113  PHE113     -0.0000
     72  N         -2.3020   50.1480   53.6110 N.3   122  LEU122     -0.1245
     73  CA        -0.8460   50.0920   53.6280 C.3   122  LEU122      0.1561
     74  C         -0.3660   48.6430   53.6840 C.2   122  LEU122      0.2260
     75  O          0.8280   48.3810   53.5940 O.2   122  LEU122     -0.2867
     76  CB        -0.2960   50.8890   54.8180 C.3   122  LEU122      0.0270
     77  CG        -0.6230   52.3930   54.8600 C.3   122  LEU122      0.0019
     78  CD1       -0.1160   53.0150   56.1540 C.3   122  LEU122      0.0001
     79  CD2       -0.0280   53.1140   53.6490 C.3   122  LEU122      0.0001
     80  N          3.9570   48.3120   53.2740 N.3   126  HIS126     -0.1241
     81  CA         4.8520   48.6470   54.3810 C.3   126  HIS126      0.1621
     82  C          5.0180   47.4400   55.2950 C.2   126  HIS126      0.2264
     83  O          4.0380   46.7850   55.6530 O.2   126  HIS126     -0.2867
     84  CB         4.3130   49.8520   55.1530 C.3   126  HIS126      0.0745
     85  CG         4.2630   51.1030   54.3330 C.ar  126  HIS126      0.0817
     86  ND1        5.3260   51.9730   54.2430 N.ar  126  HIS126     -0.2268
     87  CD2        3.3070   51.5890   53.5050 C.ar  126  HIS126      0.1154
     88  CE1        5.0320   52.9380   53.3900 C.ar  126  HIS126      0.1986
     89  NE2        3.8120   52.7280   52.9280 N.ar  126  HIS126     -0.2212
@<TRIPOS>BOND
     1    60    58   am
     2    55    56    2
     3    55    54    1
     4    58    57    1
     5    58    59    2
     6    57    54    1
     7    54    53    1
     8    89    88   ar
     9    89    87   ar
    10    80    81    1
    11    88    86   ar
    12    87    85   ar
    13    75    74    2
    14    72    73    1
    15    73    74    1
    16    73    76    1
    17    79    77    1
    18    53    50   am
    19    10     9    1
    20    11     9    2
    21    86    85   ar
    22    85    84    1
    23    81    84    1
    24    81    82    1
    25    76    77    1
    26    77    78    1
    27    50    51    2
    28    50    49    1
    29    82    83    2
    30     8     7    2
    31    49    52    1
    32    49    48    1
    33    30    28   ar
    34    30    29   ar
    35    28    26   ar
    36     7     6    1
    37    47    45   am
    38    46    45    2
    39    19    17    1
    40    29    27   ar
    41    26    25   ar
    42    45    44    1
    43    69    71   ar
    44    69    67   ar
    45    71    70   ar
    46     6     5    1
    47    27    25   ar
    48    25    24    1
    49    17    16    1
    50    67    66   ar
    51     5     2    1
    52    38    37    1
    53    70    68   ar
    54    44    43    1
    55    18    16    1
    56    16    13    1
    57    37    36    1
    58    66    68   ar
    59    66    65    1
    60    24    21    1
    61    36    35    1
    62    43    40    1
    63     2     1    1
    64     2     3    1
    65    65    62    1
    66    21    22    1
    67    21    20    1
    68    13    12    1
    69    13    14    1
    70     3     4    2
    71    35    32    1
    72    61    62    1
    73    40    41    1
    74    40    39    1
    75    22    31   am
    76    22    23    2
    77    31    32    1
    78    62    63    1
    79    41    42    2
    80    14    15    2
    81    32    33    1
    82    34    33    2
    83    64    63    2
