@<TRIPOS>MOLECULE
tmp/1w8mA00.pdb
 90 86 0 0 0
SMALL
GASTEIGER

@<TRIPOS>ATOM
      1  N          6.5170   64.0160   61.0440 N.3    55  ARG55      -0.1245
      2  CA         5.2460   63.9630   60.3260 C.3    55  ARG55       0.1563
      3  C          4.2430   63.2550   61.2050 C.2    55  ARG55       0.2260
      4  O          4.3370   62.0430   61.3540 O.2    55  ARG55      -0.2867
      5  CB         5.4280   63.1690   59.0360 C.3    55  ARG55       0.0307
      6  CG         4.2860   63.2490   58.0520 C.3    55  ARG55       0.0489
      7  CD         4.5230   62.3160   56.8570 C.3    55  ARG55       0.2205
      8  NE         3.3980   62.2990   55.9390 N.pl3  55  ARG55      -0.0865
      9  CZ         2.9190   61.2200   55.3330 C.cat  55  ARG55       0.5346
     10  NH1        3.4340   60.0150   55.5490 N.pl3  55  ARG55       0.1354
     11  NH2        1.8840   61.3510   54.5120 N.pl3  55  ARG55       0.1354
     12  N         -4.2850   59.0640   62.1160 N.3    60  PHE60      -0.1227
     13  CA        -3.5530   58.2720   61.1480 C.3    60  PHE60       0.1736
     14  C         -2.2940   57.7100   61.8100 C.2    60  PHE60       0.2595
     15  O         -2.2950   56.5630   62.2640 O.2    60  PHE60      -0.2718
     16  CB        -3.2740   59.1250   59.9080 C.3    60  PHE60       0.0547
     17  CG        -2.5520   58.4110   58.8010 C.ar   60  PHE60      -0.0202
     18  CD1       -1.8740   59.1340   57.8240 C.ar   60  PHE60      -0.0042
     19  CD2       -2.5550   57.0340   58.7190 C.ar   60  PHE60      -0.0042
     20  CE1       -1.2140   58.4920   56.7940 C.ar   60  PHE60      -0.0003
     21  CE2       -1.9070   56.3820   57.7010 C.ar   60  PHE60      -0.0003
     22  CZ        -1.2520   57.0990   56.7210 C.ar   60  PHE60      -0.0000
     23  N         -1.2300   58.4950   61.9170 N.am   61  MET61      -0.1979
     24  CA         0.0350   57.9640   62.4290 C.3    61  MET61       0.1605
     25  C          1.0230   59.0640   62.8250 C.2    61  MET61       0.2287
     26  O          0.8840   60.2320   62.4450 O.2    61  MET61      -0.2864
     27  CB         0.6760   57.0130   61.4050 C.3    61  MET61       0.0413
     28  CG         0.9260   57.6190   60.0310 C.3    61  MET61       0.0598
     29  SD         2.5550   58.4020   59.9880 S.3    61  MET61      -0.1393
     30  CE         2.1340   59.9610   59.1180 C.3    61  MET61       0.0692
     31  N          5.0810   59.6140   62.4250 N.3    63  GLN63      -0.1245
     32  CA         6.2610   59.1590   61.6960 C.3    63  GLN63       0.1566
     33  C          7.5310   59.8510   62.1630 C.2    63  GLN63       0.2260
     34  O          7.5430   61.0740   62.3550 O.2    63  GLN63      -0.2867
     35  CB         6.0770   59.4140   60.2000 C.3    63  GLN63       0.0367
     36  CG         7.1990   58.8930   59.3120 C.3    63  GLN63       0.0905
     37  CD         6.8860   59.0440   57.8350 C.2    63  GLN63       0.2608
     38  OE1        5.7160   59.1530   57.4560 O.2    63  GLN63      -0.2717
     39  NE2        7.9200   59.0220   56.9960 N.am   63  GLN63      -0.0878
     40  N          8.2470   53.0870   57.4950 N.3   101  ALA101     -0.1231
     41  CA         8.0870   54.0550   56.4240 C.3   101  ALA101      0.1694
     42  C          9.0330   53.7270   55.2690 C.2   101  ALA101      0.2592
     43  O         10.0310   53.0210   55.4320 O.2   101  ALA101     -0.2718
     44  CB         8.3680   55.4480   56.9610 C.3   101  ALA101      0.0304
     45  N          8.7360   54.2460   54.0820 N.am  102  ASN102     -0.1960
     46  CA         9.5790   53.9370   52.9320 C.3   102  ASN102      0.1819
     47  C          9.3120   54.9200   51.7980 C.2   102  ASN102      0.2621
     48  O          8.4770   55.8120   51.9450 O.2   102  ASN102     -0.2715
     49  CB         9.4600   52.4730   52.4910 C.3   102  ASN102      0.1195
     50  CG         8.0530   52.0980   52.0860 C.2   102  ASN102      0.2630
     51  OD1        7.4840   51.0930   52.5490 O.2   102  ASN102     -0.2716
     52  ND2        7.4790   52.9040   51.2200 N.am  102  ASN102     -0.0877
     53  N         10.0580   54.7650   50.7050 N.am  103  ALA103     -0.1963
     54  CA         9.8390   55.5250   49.4830 C.3   103  ALA103      0.1728
     55  C          9.4830   54.6140   48.3100 C.2   103  ALA103      0.2616
     56  O          9.8840   54.8430   47.1750 O.2   103  ALA103     -0.2715
     57  CB        11.0560   56.3910   49.1530 C.3   103  ALA103      0.0334
     58  N          8.6580   53.6120   48.5810 N.am  104  GLY104     -0.1955
     59  CA         8.2940   52.6340   47.5760 C.3   104  GLY104      0.1869
     60  C          8.8370   51.2790   47.9530 C.2   104  GLY104      0.2309
     61  O          9.4770   51.1330   49.0000 O.2   104  GLY104     -0.2863
     62  N          6.7400   54.4540   61.5480 N.3   113  PHE113     -0.1241
     63  CA         5.5740   55.1490   62.0810 C.3   113  PHE113      0.1605
     64  C          4.7770   54.3150   63.0750 C.2   113  PHE113      0.2264
     65  O          4.8270   53.0900   63.0770 O.2   113  PHE113     -0.2867
     66  CB         4.6850   55.6750   60.9480 C.3   113  PHE113      0.0534
     67  CG         4.1630   54.6050   60.0300 C.ar  113  PHE113     -0.0203
     68  CD1        4.9520   54.0810   59.0260 C.ar  113  PHE113     -0.0042
     69  CD2        2.8560   54.1510   60.1560 C.ar  113  PHE113     -0.0042
     70  CE1        4.4480   53.1020   58.1870 C.ar  113  PHE113     -0.0003
     71  CE2        2.3570   53.1740   59.3150 C.ar  113  PHE113     -0.0003
     72  CZ         3.1540   52.6540   58.3360 C.ar  113  PHE113     -0.0000
     73  N         -2.4090   50.5450   53.9960 N.3   122  LEU122     -0.1245
     74  CA        -0.9510   50.3970   53.9960 C.3   122  LEU122      0.1561
     75  C         -0.5220   48.9340   54.0010 C.2   122  LEU122      0.2260
     76  O          0.6530   48.6030   53.8300 O.2   122  LEU122     -0.2867
     77  CB        -0.3810   51.0860   55.2340 C.3   122  LEU122      0.0270
     78  CG        -0.7700   52.5620   55.3210 C.3   122  LEU122      0.0019
     79  CD1       -0.1940   53.1490   56.5840 C.3   122  LEU122      0.0001
     80  CD2       -0.3360   53.3190   54.0840 C.3   122  LEU122      0.0001
     81  N          3.7970   48.6860   53.6190 N.3   126  HIS126     -0.1241
     82  CA         4.7120   48.9900   54.7150 C.3   126  HIS126      0.1621
     83  C          4.8210   47.7690   55.6070 C.2   126  HIS126      0.2264
     84  O          3.8070   47.1600   55.9410 O.2   126  HIS126     -0.2867
     85  CB         4.1910   50.1850   55.5230 C.3   126  HIS126      0.0745
     86  CG         4.0910   51.4080   54.6730 C.ar  126  HIS126      0.0817
     87  ND1        5.1760   52.2190   54.4370 N.ar  126  HIS126     -0.2268
     88  CD2        3.0940   51.8670   53.8800 C.ar  126  HIS126      0.1154
     89  CE1        4.8450   53.1430   53.5500 C.ar  126  HIS126      0.1986
     90  NE2        3.5890   52.9470   53.1930 N.ar  126  HIS126     -0.2212
@<TRIPOS>BOND
     1    56    55    2
     2    59    60    1
     3    59    58    1
     4    60    61    2
     5    55    58   am
     6    55    54    1
     7    57    54    1
     8    54    53    1
     9    53    47   am
    10    52    50   am
    11    47    48    2
    12    47    46    1
    13    50    49    1
    14    50    51    2
    15    49    46    1
    16    46    45    1
    17    90    89   ar
    18    90    88   ar
    19    89    87   ar
    20    81    82    1
    21    76    75    2
    22    88    86   ar
    23    73    74    1
    24    74    75    1
    25    74    77    1
    26    45    42   am
    27    80    78    1
    28    87    86   ar
    29    11     9    1
    30    86    85    1
    31    82    85    1
    32    82    83    1
    33    77    78    1
    34    42    43    2
    35    42    41    1
    36    78    79    1
    37     9    10    1
    38     9     8    2
    39    83    84    2
    40     8     7    1
    41    41    44    1
    42    41    40    1
    43    22    20   ar
    44    22    21   ar
    45    20    18   ar
    46     7     6    1
    47    39    37   am
    48    38    37    2
    49    21    19   ar
    50    18    17   ar
    51    37    36    1
    52     6     5    1
    53    70    72   ar
    54    70    68   ar
    55    72    71   ar
    56    19    17   ar
    57    17    16    1
    58    68    67   ar
    59     5     2    1
    60    30    29    1
    61    36    35    1
    62    71    69   ar
    63    16    13    1
    64    29    28    1
    65    67    69   ar
    66    67    66    1
    67    28    27    1
    68    35    32    1
    69     2     1    1
    70     2     3    1
    71    66    63    1
    72    13    14    1
    73    13    12    1
    74     3     4    2
    75    27    24    1
    76    62    63    1
    77    32    33    1
    78    32    31    1
    79    14    23   am
    80    14    15    2
    81    23    24    1
    82    63    64    1
    83    33    34    2
    84    24    25    1
    85    26    25    2
    86    64    65    2
