@<TRIPOS>MOLECULE
tmp/1w8sA00.pdb
 142 135 0 0 0
SMALL
GASTEIGER

@<TRIPOS>ATOM
      1  N         -2.3410  130.4900   20.8630 N.3    20  ALA20      -0.1245
      2  CA        -2.3010  129.1800   21.4920 C.3    20  ALA20       0.1562
      3  C         -1.8900  129.2520   22.9660 C.2    20  ALA20       0.2260
      4  O         -0.9120  129.9220   23.3230 O.2    20  ALA20      -0.2867
      5  CB        -1.3500  128.2850   20.6960 C.3    20  ALA20       0.0290
      6  N         -2.4150  126.1930   25.3290 N.3    22  ASP22      -0.1225
      7  CA        -2.4590  124.8750   25.9930 C.3    22  ASP22       0.1805
      8  C         -1.1240  124.5130   26.6570 C.2    22  ASP22       0.2597
      9  O         -0.9440  123.4060   27.1900 O.2    22  ASP22      -0.2718
     10  CB        -2.9230  123.8050   25.0190 C.3    22  ASP22       0.1424
     11  CG        -2.0120  123.6650   23.8080 C.2    22  ASP22       0.3668
     12  OD1       -1.3380  124.6650   23.4310 O.co2  22  ASP22      -0.2456
     13  OD2       -1.8940  122.5810   23.1890 O.co2  22  ASP22      -0.2456
     14  N         -0.1920  125.4610   26.6910 N.am   23  HIS23      -0.1975
     15  CA         1.1660  125.1420   27.1210 C.3    23  HIS23       0.1656
     16  C          1.2830  124.7390   28.5860 C.2    23  HIS23       0.2291
     17  O          2.2340  124.0540   28.9590 O.2    23  HIS23      -0.2864
     18  CB         2.0700  126.3280   26.8360 C.3    23  HIS23       0.0771
     19  CG         2.0510  126.7430   25.3960 C.ar   23  HIS23       0.0820
     20  ND1        3.1990  126.8650   24.6350 N.ar   23  HIS23      -0.2267
     21  CD2        1.0260  127.0920   24.5890 C.ar   23  HIS23       0.1154
     22  CE1        2.8700  127.2310   23.4130 C.ar   23  HIS23       0.1986
     23  NE2        1.5600  127.3970   23.3650 N.ar   23  HIS23      -0.2212
     24  N          1.0090  120.9750   28.3130 N.3    26  GLU26      -0.1231
     25  CA         1.9650  120.3900   27.3620 C.3    26  GLU26       0.1699
     26  C          3.4080  120.5980   27.7760 C.2    26  GLU26       0.2592
     27  O          4.2300  119.6750   27.6570 O.2    26  GLU26      -0.2718
     28  CB         1.7450  120.9860   25.9650 C.3    26  GLU26       0.0402
     29  CG         0.4590  120.5780   25.3160 C.3    26  GLU26       0.1161
     30  CD         0.4100  119.1000   24.9810 C.2    26  GLU26       0.3649
     31  OE1        1.4590  118.5370   24.6600 O.co2  26  GLU26      -0.2457
     32  OE2       -0.6820  118.5170   25.0340 O.co2  26  GLU26      -0.2457
     33  N          3.7430  121.8100   28.2450 N.am   27  HIS27      -0.1976
     34  CA         5.1140  122.1300   28.6780 C.3    27  HIS27       0.1656
     35  C          5.2730  122.4850   30.1510 C.2    27  HIS27       0.2291
     36  O          6.3570  122.4110   30.6970 O.2    27  HIS27      -0.2864
     37  CB         5.7110  123.2840   27.8590 C.3    27  HIS27       0.0771
     38  CG         5.6360  123.0780   26.3870 C.ar   27  HIS27       0.0820
     39  ND1        5.4250  124.1170   25.5030 N.ar   27  HIS27      -0.2267
     40  CD2        5.7560  121.9570   25.6380 C.ar   27  HIS27       0.1154
     41  CE1        5.3860  123.6310   24.2700 C.ar   27  HIS27       0.1986
     42  NE2        5.6030  122.3290   24.3260 N.ar   27  HIS27      -0.2212
     43  N         -6.7230  129.1580   22.0540 N.3    57  VAL57      -0.1245
     44  CA        -6.7700  127.7010   22.2590 C.3    57  VAL57       0.1561
     45  C         -6.5350  127.4410   23.7170 C.2    57  VAL57       0.2260
     46  O         -5.4770  127.7860   24.2310 O.2    57  VAL57      -0.2867
     47  CB        -5.6940  126.9660   21.4790 C.3    57  VAL57       0.0252
     48  CG1       -5.8450  125.4170   21.6610 C.3    57  VAL57       0.0019
     49  CG2       -5.7440  127.3340   20.0320 C.3    57  VAL57       0.0019
     50  N         -0.1750  112.0380   17.0380 N.3   112  TYR112     -0.1241
     51  CA         1.2690  111.7980   16.8240 C.3   112  TYR112      0.1605
     52  C          1.4440  110.6080   15.8940 C.2   112  TYR112      0.2264
     53  O          1.7780  109.5030   16.3460 O.2   112  TYR112     -0.2867
     54  CB         1.9800  111.5560   18.1470 C.3   112  TYR112      0.0534
     55  CG         1.8190  112.6870   19.1600 C.ar  112  TYR112     -0.0201
     56  CD1        2.3200  113.9450   18.9240 C.ar  112  TYR112     -0.0009
     57  CD2        1.1640  112.4670   20.3740 C.ar  112  TYR112     -0.0009
     58  CE1        2.1700  114.9480   19.8520 C.ar  112  TYR112      0.0417
     59  CE2        1.0090  113.4720   21.3020 C.ar  112  TYR112      0.0417
     60  CZ         1.5060  114.7050   21.0470 C.ar  112  TYR112      0.1957
     61  OH         1.2960  115.7130   21.9780 O.3   112  TYR112     -0.2866
     62  N          1.2100  116.1270   14.4320 N.3   144  PHE144     -0.1241
     63  CA         2.6160  116.2140   14.8140 C.3   144  PHE144      0.1605
     64  C          3.2630  114.8230   14.8400 C.2   144  PHE144      0.2264
     65  O          3.3660  114.1800   15.8910 O.2   144  PHE144     -0.2867
     66  CB         2.7430  116.8150   16.1960 C.3   144  PHE144      0.0534
     67  CG         2.3450  118.2810   16.2850 C.ar  144  PHE144     -0.0203
     68  CD1        2.6510  119.1910   15.2840 C.ar  144  PHE144     -0.0042
     69  CD2        1.6510  118.7450   17.4040 C.ar  144  PHE144     -0.0042
     70  CE1        2.2810  120.5310   15.3700 C.ar  144  PHE144     -0.0003
     71  CE2        1.2890  120.1050   17.5040 C.ar  144  PHE144     -0.0003
     72  CZ         1.6220  120.9870   16.4810 C.ar  144  PHE144     -0.0000
     73  N          5.5560  111.8970   15.4910 N.3   146  ARG146     -0.1245
     74  CA         6.5260  111.7880   16.5790 C.3   146  ARG146      0.1563
     75  C          6.5180  110.3560   17.0590 C.2   146  ARG146      0.2260
     76  O          5.4210  109.7460   17.1840 O.2   146  ARG146     -0.2867
     77  CB         6.0950  112.6970   17.7380 C.3   146  ARG146      0.0307
     78  CG         7.1310  112.9640   18.8270 C.3   146  ARG146      0.0489
     79  CD         6.6050  114.0210   19.8290 C.3   146  ARG146      0.2205
     80  NE         6.6260  115.3470   19.2080 N.pl3 146  ARG146     -0.0865
     81  CZ         5.9850  116.4190   19.6680 C.cat 146  ARG146      0.5346
     82  NH1        5.2650  116.3780   20.7830 N.pl3 146  ARG146      0.1354
     83  NH2        6.0970  117.5650   19.0130 N.pl3 146  ARG146      0.1354
     84  N         -3.3020  122.0810   12.1130 N.3   175  LYS175     -0.1245
     85  CA        -2.1070  122.7640   12.5650 C.3   175  LYS175      0.1561
     86  C         -0.9380  121.8050   12.3910 C.2   175  LYS175      0.2260
     87  O         -1.0020  120.6480   12.8560 O.2   175  LYS175     -0.2867
     88  CB        -2.2700  123.1980   14.0180 C.3   175  LYS175      0.0271
     89  CG        -0.9990  123.7070   14.6720 C.3   175  LYS175      0.0035
     90  CD        -1.2370  124.3250   16.0740 C.3   175  LYS175      0.0206
     91  CE        -1.7190  123.3380   17.0900 C.3   175  LYS175      0.1093
     92  NZ        -1.6510  123.8590   18.4950 N.3   175  LYS175     -0.1314
     93  N          3.7160  121.7250   11.8060 N.3   177  LYS177     -0.1245
     94  CA         4.9890  122.4570   11.9560 C.3   177  LYS177      0.1561
     95  C          5.4800  122.9980   10.6250 C.2   177  LYS177      0.2260
     96  O          5.1870  122.4340    9.5750 O.2   177  LYS177     -0.2867
     97  CB         6.0440  121.5670   12.6290 C.3   177  LYS177      0.0271
     98  CG         5.6260  121.2710   14.0990 C.3   177  LYS177      0.0035
     99  CD         6.6620  120.5040   14.8320 C.3   177  LYS177      0.0206
    100  CE         6.3710  120.4610   16.3440 C.3   177  LYS177      0.1093
    101  NZ         7.5780  120.0760   17.1410 N.3   177  LYS177     -0.1314
    102  N          2.1110  126.0050   13.2950 N.3   200  SER200     -0.1202
    103  CA         2.4800  126.0390   14.7050 C.3   200  SER200      0.2020
    104  C          3.7220  126.9170   14.9160 C.2   200  SER200      0.2619
    105  O          4.7260  126.7330   14.2320 O.2   200  SER200     -0.2717
    106  CB         2.7800  124.6180   15.2010 C.3   200  SER200      0.2103
    107  OG         2.7120  124.5620   16.6070 O.3   200  SER200     -0.2182
    108  N          3.6730  127.8550   15.8600 N.am  201  GLY201     -0.1942
    109  CA         4.7370  128.8450   15.9920 C.3   201  GLY201      0.2014
    110  C          6.1320  128.3410   16.3810 C.2   201  GLY201      0.2639
    111  O          7.1580  128.8650   15.9130 O.2   201  GLY201     -0.2714
    112  N          6.1810  127.3620   17.2730 N.am  202  GLY202     -0.1954
    113  CA         7.4280  126.7960   17.7690 C.3   202  GLY202      0.1869
    114  C          8.0990  127.5770   18.8920 C.2   202  GLY202      0.2309
    115  O          7.5880  128.6210   19.3580 O.2   202  GLY202     -0.2863
    116  N         -0.9540  129.4940   14.3420 N.3   227  ALA227     -0.1231
    117  CA        -1.3830  129.2510   15.7060 C.3   227  ALA227      0.1694
    118  C         -0.1280  129.4330   16.5490 C.2   227  ALA227      0.2592
    119  O          0.7640  128.5640   16.5510 O.2   227  ALA227     -0.2718
    120  CB        -1.9430  127.8670   15.8490 C.3   227  ALA227      0.0304
    121  N         -0.0490  130.5860   17.2160 N.am  228  VAL228     -0.1966
    122  CA         1.1870  131.0480   17.8360 C.3   228  VAL228      0.1727
    123  C          0.9840  131.2380   19.3380 C.2   228  VAL228      0.2617
    124  O         -0.0040  131.7950   19.7750 O.2   228  VAL228     -0.2715
    125  CB         1.6770  132.3650   17.1860 C.3   228  VAL228      0.0290
    126  CG1        0.6540  133.4850   17.3460 C.3   228  VAL228      0.0023
    127  CG2        3.0680  132.7700   17.7450 C.3   228  VAL228      0.0023
    128  N          1.9460  130.7660   20.1150 N.am  229  GLY229     -0.1940
    129  CA         1.9220  130.8910   21.5550 C.3   229  GLY229      0.2014
    130  C          3.1380  131.6360   22.0370 C.2   229  GLY229      0.2638
    131  O          3.1060  132.8470   22.2530 O.2   229  GLY229     -0.2714
    132  N          4.2290  130.8910   22.1960 N.am  230  ARG230     -0.1977
    133  CA         5.4410  131.3880   22.8010 C.3   230  ARG230      0.1597
    134  C          6.0120  132.5890   22.0890 C.2   230  ARG230      0.2287
    135  O          6.4910  133.5110   22.7230 O.2   230  ARG230     -0.2864
    136  CB         6.4900  130.2830   22.8460 C.3   230  ARG230      0.0334
    137  CG         6.2160  129.1940   23.8890 C.3   230  ARG230      0.0492
    138  CD         7.0430  127.9230   23.6810 C.3   230  ARG230      0.2205
    139  NE         6.5540  127.1370   22.5360 N.pl3 230  ARG230     -0.0865
    140  CZ         7.0170  125.9500   22.1910 C.cat 230  ARG230      0.5346
    141  NH1        8.0170  125.3900   22.8760 N.pl3 230  ARG230      0.1354
    142  NH2        6.4940  125.3140   21.1290 N.pl3 230  ARG230      0.1354
@<TRIPOS>BOND
     1    96    95    2
     2    95    94    1
     3    93    94    1
     4    94    97    1
     5    84    85    1
     6    86    85    1
     7    86    87    2
     8    85    88    1
     9    97    98    1
    10   102   103    1
    11    88    89    1
    12    98    99    1
    13   105   104    2
    14   116   117    1
    15    62    63    1
    16    89    90    1
    17   103   104    1
    18   103   106    1
    19    63    64    1
    20    63    66    1
    21    99   100    1
    22    64    65    2
    23   104   108   am
    24   106   107    1
    25    68    70   ar
    26    68    67   ar
    27    70    72   ar
    28    73    74    1
    29   117   120    1
    30   117   118    1
    31   108   109    1
    32    52    53    2
    33    52    51    1
    34   111   110    2
    35   109   110    1
    36    90    91    1
    37    66    67    1
    38    67    69   ar
    39   100   101    1
    40   110   112   am
    41    72    71   ar
    42   118   119    2
    43   118   121   am
    44    74    75    1
    45    74    77    1
    46    51    50    1
    47    51    54    1
    48    75    76    2
    49    91    92    1
    50   125   126    1
    51   125   127    1
    52   125   122    1
    53   121   122    1
    54   112   113    1
    55    69    71   ar
    56    77    78    1
    57   113   114    1
    58   122   123    1
    59    54    55    1
    60    78    79    1
    61   114   115    2
    62    56    55   ar
    63    56    58   ar
    64    83    81    1
    65    55    57   ar
    66    80    81    2
    67    80    79    1
    68   123   124    2
    69   123   128   am
    70    81    82    1
    71    58    60   ar
    72    49    47    1
    73   128   129    1
    74    57    59   ar
    75     5     2    1
    76     1     2    1
    77    60    59   ar
    78    60    61    1
    79   142   140    1
    80    47    48    1
    81    47    44    1
    82     2     3    1
    83   129   130    1
    84   130   132   am
    85   130   131    2
    86    43    44    1
    87   134   135    2
    88   134   133    1
    89   140   139    2
    90   140   141    1
    91   132   133    1
    92    44    45    1
    93   139   138    1
    94   133   136    1
    95   136   137    1
    96     3     4    2
    97    13    11   ar
    98    23    22   ar
    99    23    21   ar
   100    22    20   ar
   101    12    11   ar
   102   138   137    1
   103    45    46    2
   104    11    10    1
   105    41    42   ar
   106    41    39   ar
   107    42    40   ar
   108    21    19   ar
   109    20    19   ar
   110    31    30   ar
   111    30    32   ar
   112    30    29    1
   113    10     7    1
   114    29    28    1
   115     6     7    1
   116    19    18    1
   117    39    38   ar
   118    40    38   ar
   119    28    25    1
   120     7     8    1
   121    38    37    1
   122     8    14   am
   123     8     9    2
   124    14    15    1
   125    18    15    1
   126    15    16    1
   127    25    26    1
   128    25    24    1
   129    27    26    2
   130    26    33   am
   131    37    34    1
   132    33    34    1
   133    16    17    2
   134    34    35    1
   135    35    36    2
