@<TRIPOS>MOLECULE
tmp/1w8tA00.pdb
 135 131 0 0 0
SMALL
GASTEIGER

@<TRIPOS>ATOM
      1  N          3.4640    6.0490    2.7750 N.3    22  ASN22      -0.1225
      2  CA         4.4120    5.9940    1.6580 C.3    22  ASN22       0.1785
      3  C          4.4040    7.2940    0.9150 C.2    22  ASN22       0.2597
      4  O          3.4210    7.6220    0.2380 O.2    22  ASN22      -0.2718
      5  CB         4.0370    4.8810    0.6790 C.3    22  ASN22       0.1169
      6  CG         5.0210    4.7170   -0.4600 C.2    22  ASN22       0.2627
      7  OD1        6.1000    5.2620   -0.4570 O.2    22  ASN22      -0.2716
      8  ND2        4.6530    3.9180   -1.4490 N.am   22  ASN22      -0.0877
      9  N          5.4990    8.0430    1.0400 N.am   23  TRP23      -0.1962
     10  CA         5.6900    9.3130    0.3290 C.3    23  TRP23       0.1771
     11  C          6.5760    9.0900   -0.8980 C.2    23  TRP23       0.2620
     12  O          7.2720    9.9900   -1.3670 O.2    23  TRP23      -0.2715
     13  CB         6.3290   10.3440    1.2640 C.3    23  TRP23       0.0590
     14  CG         5.4170   10.9360    2.2920 C.ar   23  TRP23       0.0006
     15  CD1        4.2440   10.4290    2.7750 C.ar   23  TRP23       0.0946
     16  CD2        5.6360   12.1840    2.9780 C.ar   23  TRP23       0.0152
     17  NE1        3.7250   11.2910    3.7130 N.ar   23  TRP23      -0.2442
     18  CE2        4.5630   12.3570    3.8660 C.ar   23  TRP23       0.0810
     19  CE3        6.6360   13.1710    2.9210 C.ar   23  TRP23       0.0012
     20  CZ2        4.4300   13.4870    4.6930 C.ar   23  TRP23       0.0191
     21  CZ3        6.5020   14.2830    3.7500 C.ar   23  TRP23       0.0001
     22  CH2        5.3980   14.4210    4.6190 C.ar   23  TRP23       0.0015
     23  N          6.5300    7.8730   -1.4380 N.am   24  GLY24      -0.1940
     24  CA         7.3120    7.5120   -2.5960 C.3    24  GLY24       0.2014
     25  C          6.8110    8.1330   -3.8790 C.2    24  GLY24       0.2638
     26  O          5.8530    8.9280   -3.9090 O.2    24  GLY24      -0.2714
     27  N          7.4900    7.7940   -4.9470 N.am   25  TRP25      -0.1973
     28  CA         7.2120    8.4010   -6.2360 C.3    25  TRP25       0.1640
     29  C          7.6540    7.4120   -7.2990 C.2    25  TRP25       0.2290
     30  O          8.5890    6.6220   -7.1340 O.2    25  TRP25      -0.2864
     31  CB         7.9250    9.7310   -6.3770 C.3    25  TRP25       0.0576
     32  CG         9.4100    9.6380   -6.3210 C.ar   25  TRP25       0.0006
     33  CD1       10.2610    9.5240   -7.4000 C.ar   25  TRP25       0.0946
     34  CD2       10.2760    9.6170   -5.1640 C.ar   25  TRP25       0.0152
     35  NE1       11.5590    9.4450   -6.9860 N.ar   25  TRP25      -0.2442
     36  CE2       11.6030    9.4920   -5.6120 C.ar   25  TRP25       0.0810
     37  CE3       10.0590    9.6790   -3.7860 C.ar   25  TRP25       0.0012
     38  CZ2       12.6870    9.4450   -4.7520 C.ar   25  TRP25       0.0191
     39  CZ3       11.1390    9.6650   -2.9350 C.ar   25  TRP25       0.0001
     40  CH2       12.4390    9.5310   -3.4130 C.ar   25  TRP25       0.0015
     41  N         11.8030    7.2210  -14.1840 N.3    44  LYS44      -0.1231
     42  CA        11.2980    8.0560  -13.0970 C.3    44  LYS44       0.1693
     43  C         12.2590    8.1050  -11.8920 C.2    44  LYS44       0.2592
     44  O         12.0770    8.9060  -10.9900 O.2    44  LYS44      -0.2718
     45  CB         9.9260    7.5760  -12.6670 C.3    44  LYS44       0.0285
     46  CG         8.8450    7.7380  -13.7610 C.3    44  LYS44       0.0035
     47  CD         8.4650    9.1780  -14.0180 C.3    44  LYS44       0.0206
     48  CE         7.4930    9.2740  -15.1940 C.3    44  LYS44       0.1093
     49  NZ         7.6280   10.6120  -15.8960 N.3    44  LYS44      -0.1314
     50  N         13.2670    7.2520  -11.8730 N.am   45  TYR45      -0.1976
     51  CA        14.1390    7.0770  -10.7140 C.3    45  TYR45       0.1639
     52  C         13.3010    6.9430   -9.4400 C.2    45  TYR45       0.2290
     53  O         13.5400    7.6460   -8.4450 O.2    45  TYR45      -0.2864
     54  CB        15.1570    8.2250  -10.6400 C.3    45  TYR45       0.0560
     55  CG        16.0010    8.3280  -11.8980 C.ar   45  TYR45      -0.0198
     56  CD1       15.5420    9.0290  -13.0250 C.ar   45  TYR45      -0.0009
     57  CD2       17.2330    7.7080  -11.9770 C.ar   45  TYR45      -0.0009
     58  CE1       16.3080    9.1150  -14.1720 C.ar   45  TYR45       0.0417
     59  CE2       18.0110    7.7640  -13.1430 C.ar   45  TYR45       0.0417
     60  CZ        17.5420    8.4830  -14.2280 C.ar   45  TYR45       0.1957
     61  OH        18.3080    8.5750  -15.3910 O.3    45  TYR45      -0.2866
     62  N         18.3760    6.1390    1.0940 N.3    75  LEU75      -0.1245
     63  CA        18.4400    7.5070    1.6360 C.3    75  LEU75       0.1561
     64  C         17.6090    7.6090    2.8760 C.2    75  LEU75       0.2260
     65  O         16.6820    6.8170    3.0970 O.2    75  LEU75      -0.2867
     66  CB        17.9760    8.5790    0.6280 C.3    75  LEU75       0.0270
     67  CG        18.6880    8.5370   -0.7190 C.3    75  LEU75       0.0019
     68  CD1       17.8970    7.7160   -1.6980 C.3    75  LEU75       0.0001
     69  CD2       18.8840    9.9810   -1.2390 C.3    75  LEU75       0.0001
     70  N         15.5750   10.9640    5.0860 N.3    77  GLU77      -0.1245
     71  CA        15.2260   12.3860    4.9690 C.3    77  GLU77       0.1567
     72  C         14.5950   12.8690    6.2560 C.2    77  GLU77       0.2260
     73  O         13.9600   12.1260    6.9740 O.2    77  GLU77      -0.2867
     74  CB        14.2600   12.6870    3.8090 C.3    77  GLU77       0.0388
     75  CG        14.5060   11.9250    2.5180 C.3    77  GLU77       0.1160
     76  CD        13.5700   12.3470    1.4110 C.2    77  GLU77       0.3649
     77  OE1       13.2180   13.5200    1.3280 O.co2  77  GLU77      -0.2457
     78  OE2       13.1660   11.5100    0.5810 O.co2  77  GLU77      -0.2457
     79  N         13.2650   19.3600    5.0790 N.3    82  ASP82      -0.1239
     80  CA        13.3840   18.9070    3.6870 C.3    82  ASP82       0.1674
     81  C         14.8310   18.6480    3.3070 C.2    82  ASP82       0.2266
     82  O         15.3270   19.1280    2.3180 O.2    82  ASP82      -0.2867
     83  CB        12.7190   19.8710    2.7040 C.3    82  ASP82       0.1410
     84  CG        12.6030   19.2920    1.3230 C.2    82  ASP82       0.3668
     85  OD1       12.4910   18.0460    1.2240 O.co2  82  ASP82      -0.2456
     86  OD2       12.6270   20.0010    0.2890 O.co2  82  ASP82      -0.2456
     87  N         17.7840   15.6250    2.7300 N.3    84  LYS84      -0.1245
     88  CA        18.0220   14.2190    2.3910 C.3    84  LYS84       0.1561
     89  C         19.4720   13.8510    2.6120 C.2    84  LYS84       0.2260
     90  O         20.3680   14.7300    2.6440 O.2    84  LYS84      -0.2867
     91  CB        17.6020   13.9340    0.9640 C.3    84  LYS84       0.0271
     92  CG        18.5530   14.3670   -0.0620 C.3    84  LYS84       0.0035
     93  CD        18.0070   14.1180   -1.4530 C.3    84  LYS84       0.0206
     94  CE        19.0370   14.4850   -2.4980 C.3    84  LYS84       0.1093
     95  NZ        20.2400   13.6010   -2.3150 N.3    84  LYS84      -0.1314
     96  N         11.9030    9.7980    7.1590 N.3   111  ARG111     -0.1245
     97  CA        11.6650    9.1300    5.8680 C.3   111  ARG111      0.1563
     98  C         12.8460    8.2260    5.5840 C.2   111  ARG111      0.2260
     99  O         13.9930    8.6020    5.7450 O.2   111  ARG111     -0.2867
    100  CB        11.5070   10.1530    4.7380 C.3   111  ARG111      0.0307
    101  CG        10.2640   10.9990    4.8500 C.3   111  ARG111      0.0489
    102  CD        10.1530   12.1040    3.8330 C.3   111  ARG111      0.2205
    103  NE        10.0590   11.5290    2.4980 N.pl3 111  ARG111     -0.0865
    104  CZ         9.9580   12.2000    1.3670 C.cat 111  ARG111      0.5346
    105  NH1        9.9170   13.5090    1.3530 N.pl3 111  ARG111      0.1354
    106  NH2        9.8890   11.5610    0.2250 N.pl3 111  ARG111      0.1354
    107  N         14.1390    5.8560    2.3680 N.3   113  ASP113     -0.1239
    108  CA        13.9120    5.7150    0.9220 C.3   113  ASP113      0.1674
    109  C         14.7470    4.5810    0.3460 C.2   113  ASP113      0.2266
    110  O         15.9350    4.4210    0.6650 O.2   113  ASP113     -0.2867
    111  CB        14.3340    6.9790    0.1870 C.3   113  ASP113      0.1410
    112  CG        13.6900    8.2400    0.6710 C.2   113  ASP113      0.3668
    113  OD1       12.7240    8.2010    1.4460 O.co2 113  ASP113     -0.2456
    114  OD2       14.2260    9.3410    0.2510 O.co2 113  ASP113     -0.2456
    115  N         15.5170    3.6290   -3.5370 N.3   115  GLN115     -0.1245
    116  CA        15.3560    4.2520   -4.8440 C.3   115  GLN115      0.1566
    117  C         16.0420    3.4520   -5.9420 C.2   115  GLN115      0.2260
    118  O         17.1600    2.9640   -5.8290 O.2   115  GLN115     -0.2867
    119  CB        15.8910    5.6850   -4.7960 C.3   115  GLN115      0.0367
    120  CG        15.7370    6.4380   -6.1180 C.3   115  GLN115      0.0905
    121  CD        16.2160    7.8660   -6.0350 C.2   115  GLN115      0.2608
    122  OE1       17.0480    8.2000   -5.1860 O.2   115  GLN115     -0.2717
    123  NE2       15.7470    8.7050   -6.9570 N.am  115  GLN115     -0.0878
    124  N         18.1060    3.7170   -8.4870 N.3   117  ALA117     -0.1231
    125  CA        19.1570    4.6630   -8.8850 C.3   117  ALA117      0.1679
    126  C         19.3770    4.7610  -10.3950 C.2   117  ALA117      0.2434
    127  O         19.5790    5.8950  -10.8790 O.2   117  ALA117     -0.2733
    128  CB        20.4630    4.3450   -8.1830 C.3   117  ALA117      0.0304
    129  N         19.4380    3.6570  -11.1250 N.am  118  PRO118     -0.2729
    130  CA        19.6590    3.7440  -12.5770 C.3   118  PRO118      0.1401
    131  C         18.4770    4.2440  -13.3440 C.2   118  PRO118      0.2269
    132  O         18.6540    4.6050  -14.5210 O.2   118  PRO118     -0.2865
    133  CB        19.9380    2.2910  -12.9870 C.3   118  PRO118      0.0296
    134  CG        20.3040    1.6070  -11.7010 C.3   118  PRO118      0.0237
    135  CD        19.3960    2.2600  -10.6660 C.3   118  PRO118      0.0939
@<TRIPOS>BOND
     1    49    48    1
     2    61    60    1
     3    48    47    1
     4   132   131    2
     5    60    58   ar
     6    60    59   ar
     7    41    42    1
     8    58    56   ar
     9    47    46    1
    10    46    45    1
    11   131   130    1
    12    59    57   ar
    13    42    45    1
    14    42    43    1
    15    56    55   ar
    16   133   130    1
    17   133   134    1
    18   130   129    1
    19    57    55   ar
    20    55    54    1
    21    43    50   am
    22    43    44    2
    23    50    51    1
    24   134   135    1
    25   129   135    1
    26   129   126   am
    27   127   126    2
    28    51    54    1
    29    51    52    1
    30   126   125    1
    31    52    53    2
    32   125   124    1
    33   125   128    1
    34    33    35   ar
    35    33    32   ar
    36    29    30    2
    37    29    28    1
    38    35    36   ar
    39   123   121   am
    40    31    32    1
    41    31    28    1
    42    32    34   ar
    43    28    27    1
    44   120   121    1
    45   120   119    1
    46   121   122    2
    47   117   118    2
    48   117   116    1
    49    36    34   ar
    50    36    38   ar
    51    34    37   ar
    52    27    25   am
    53   116   119    1
    54   116   115    1
    55    38    40   ar
    56    26    25    2
    57    25    24    1
    58    37    39   ar
    59    40    39   ar
    60    24    23    1
    61    94    95    1
    62    94    93    1
    63    68    67    1
    64    93    92    1
    65     8     6   am
    66    23    11   am
    67    12    11    2
    68    69    67    1
    69    11    10    1
    70    67    66    1
    71     6     7    2
    72     6     5    1
    73    92    91    1
    74   111   112    1
    75   111   108    1
    76   106   104    1
    77     4     3    2
    78   114   112   ar
    79    86    84   ar
    80    10     9    1
    81    10    13    1
    82   109   110    2
    83   109   108    1
    84    78    76   ar
    85    66    63    1
    86   112   113   ar
    87     5     2    1
    88     3     9   am
    89     3     2    1
    90   108   107    1
    91    91    88    1
    92    62    63    1
    93    85    84   ar
    94    13    14    1
    95    84    83    1
    96    77    76   ar
    97   105   104    1
    98   104   103    2
    99    76    75    1
   100    63    64    1
   101     2     1    1
   102    14    15   ar
   103    14    16   ar
   104    82    81    2
   105    88    89    1
   106    88    87    1
   107   103   102    1
   108    75    74    1
   109    89    90    2
   110    83    80    1
   111    15    17   ar
   112    64    65    2
   113    19    16   ar
   114    19    21   ar
   115    16    18   ar
   116    81    80    1
   117    80    79    1
   118    17    18   ar
   119    21    22   ar
   120    74    71    1
   121   102   101    1
   122    18    20   ar
   123    22    20   ar
   124   100   101    1
   125   100    97    1
   126    71    70    1
   127    71    72    1
   128    98    99    2
   129    98    97    1
   130    97    96    1
   131    72    73    2
