@<TRIPOS>MOLECULE
tmp/1w8uA00.pdb
 143 136 0 0 0
SMALL
GASTEIGER

@<TRIPOS>ATOM
      1  N         26.8280   -7.2680   12.3570 N.3    21  ASN21      -0.1225
      2  CA        25.7980   -6.8530   11.4150 C.3    21  ASN21       0.1785
      3  C         25.4320   -7.9890   10.4900 C.2    21  ASN21       0.2597
      4  O         26.2390   -8.3920    9.6590 O.2    21  ASN21      -0.2718
      5  CB        26.2580   -5.6470   10.6020 C.3    21  ASN21       0.1169
      6  CG        25.2210   -5.2230    9.5800 C.2    21  ASN21       0.2627
      7  OD1       24.0080   -5.4570    9.7150 O.2    21  ASN21      -0.2716
      8  ND2       25.6980   -4.5010    8.5630 N.am   21  ASN21      -0.0877
      9  N         24.2320   -8.5100   10.6670 N.am   22  TRP22      -0.1962
     10  CA        23.6660   -9.5600    9.8230 C.3    22  TRP22       0.1771
     11  C         22.7220   -8.9340    8.7880 C.2    22  TRP22       0.2620
     12  O         21.8530   -9.6100    8.2260 O.2    22  TRP22      -0.2715
     13  CB        22.9610  -10.5910   10.6860 C.3    22  TRP22       0.0590
     14  CG        23.8280  -11.5650   11.4070 C.ar   22  TRP22       0.0006
     15  CD1       25.1310  -11.4300   11.7280 C.ar   22  TRP22       0.0946
     16  CD2       23.4150  -12.8420   11.8970 C.ar   22  TRP22       0.0152
     17  NE1       25.5700  -12.5670   12.3890 N.ar   22  TRP22      -0.2442
     18  CE2       24.5280  -13.4400   12.5150 C.ar   22  TRP22       0.0810
     19  CE3       22.2130  -13.5480   11.8670 C.ar   22  TRP22       0.0012
     20  CZ2       24.4680  -14.7240   13.0810 C.ar   22  TRP22       0.0191
     21  CZ3       22.1500  -14.8100   12.4550 C.ar   22  TRP22       0.0001
     22  CH2       23.2750  -15.3760   13.0420 C.ar   22  TRP22       0.0015
     23  N         22.8960   -7.6620    8.4950 N.am   23  GLY23      -0.1940
     24  CA        22.1110   -6.9540    7.5070 C.3    23  GLY23       0.2014
     25  C         22.3050   -7.4390    6.0830 C.2    23  GLY23       0.2638
     26  O         23.1190   -8.3150    5.7610 O.2    23  GLY23      -0.2714
     27  N         21.5230   -6.8650    5.2070 N.am   24  TRP24      -0.1973
     28  CA        21.4840   -7.2700    3.8050 C.3    24  TRP24       0.1640
     29  C         21.0960   -6.0800    2.9730 C.2    24  TRP24       0.2290
     30  O         20.3980   -5.2020    3.4170 O.2    24  TRP24      -0.2864
     31  CB        20.4670   -8.4120    3.6120 C.3    24  TRP24       0.0576
     32  CG        19.0490   -8.0850    3.9600 C.ar   24  TRP24       0.0006
     33  CD1       18.1000   -7.6320    3.0930 C.ar   24  TRP24       0.0946
     34  CD2       18.4230   -8.1570    5.2400 C.ar   24  TRP24       0.0152
     35  NE1       16.9290   -7.4330    3.7660 N.ar   24  TRP24      -0.2442
     36  CE2       17.0960   -7.7370    5.0830 C.ar   24  TRP24       0.0810
     37  CE3       18.8460   -8.5470    6.5180 C.ar   24  TRP24       0.0012
     38  CZ2       16.1990   -7.6940    6.1460 C.ar   24  TRP24       0.0191
     39  CZ3       17.9430   -8.4890    7.5950 C.ar   24  TRP24       0.0001
     40  CH2       16.6450   -8.0600    7.3900 C.ar   24  TRP24       0.0015
     41  N         16.1900   -3.9930   -3.0560 N.3    43  LYS43      -0.1231
     42  CA        16.6840   -5.0250   -2.1370 C.3    43  LYS43       0.1693
     43  C         15.9650   -5.0900   -0.8200 C.2    43  LYS43       0.2592
     44  O         16.1890   -6.0540   -0.0690 O.2    43  LYS43      -0.2718
     45  CB        18.1800   -4.8570   -1.8820 C.3    43  LYS43       0.0285
     46  CG        19.0440   -4.9160   -3.1590 C.3    43  LYS43       0.0035
     47  CD        19.0430   -6.2670   -3.7820 C.3    43  LYS43       0.0206
     48  CE        20.2730   -6.4730   -4.6760 C.3    43  LYS43       0.1093
     49  NZ        21.5510   -6.3800   -3.9170 N.3    43  LYS43      -0.1314
     50  N         15.1260   -4.1200   -0.4910 N.am   44  TYR44      -0.1976
     51  CA        14.4670   -4.0480    0.8110 C.3    44  TYR44       0.1639
     52  C         15.5440   -4.2040    1.9060 C.2    44  TYR44       0.2290
     53  O         15.4000   -4.9920    2.8500 O.2    44  TYR44      -0.2864
     54  CB        13.3300   -5.0690    0.9200 C.3    44  TYR44       0.0560
     55  CG        12.3310   -4.8720   -0.1870 C.ar   44  TYR44      -0.0198
     56  CD1       11.3270   -3.9640   -0.0660 C.ar   44  TYR44      -0.0009
     57  CD2       12.4440   -5.5530   -1.3710 C.ar   44  TYR44      -0.0009
     58  CE1       10.4110   -3.7370   -1.0930 C.ar   44  TYR44       0.0417
     59  CE2       11.5500   -5.3400   -2.4250 C.ar   44  TYR44       0.0417
     60  CZ        10.5450   -4.4050   -2.2670 C.ar   44  TYR44       0.1957
     61  OH         9.6540   -4.1760   -3.3240 O.3    44  TYR44      -0.2866
     62  N         10.7300   -0.2130    8.6070 N.3    72  LYS72      -0.1245
     63  CA        10.1570   -1.2790    9.4320 C.3    72  LYS72       0.1561
     64  C         11.1750   -1.6710   10.4860 C.2    72  LYS72       0.2260
     65  O         12.3460   -1.9040   10.1800 O.2    72  LYS72      -0.2867
     66  CB         9.8060   -2.4610    8.5610 C.3    72  LYS72       0.0271
     67  CG         9.0930   -3.5980    9.3040 C.3    72  LYS72       0.0035
     68  CD         8.2400   -4.4790    8.4290 C.3    72  LYS72       0.0206
     69  CE         8.9340   -4.9890    7.2580 C.3    72  LYS72       0.1093
     70  NZ         8.0240   -5.8240    6.3630 N.3    72  LYS72      -0.1314
     71  N         12.0290   -4.6070   13.1620 N.3    74  LEU74      -0.1245
     72  CA        11.7570   -5.9910   13.5240 C.3    74  LEU74       0.1561
     73  C         12.7100   -6.4000   14.5910 C.2    74  LEU74       0.2260
     74  O         13.8060   -5.8360   14.7500 O.2    74  LEU74      -0.2867
     75  CB        11.9210   -6.9840   12.3460 C.3    74  LEU74       0.0270
     76  CG        11.2050   -6.6560   11.0320 C.3    74  LEU74       0.0019
     77  CD1       12.1000   -5.8430   10.0780 C.3    74  LEU74       0.0001
     78  CD2       10.7500   -7.9120   10.3330 C.3    74  LEU74       0.0001
     79  N         14.2730  -10.4430   15.9760 N.3    76  GLU76      -0.1245
     80  CA        14.3320  -11.8350   15.5450 C.3    76  GLU76       0.1567
     81  C         14.9870  -12.6650   16.6020 C.2    76  GLU76       0.2260
     82  O         15.7940  -12.1760   17.3890 O.2    76  GLU76      -0.2867
     83  CB        15.0670  -12.0330   14.2280 C.3    76  GLU76       0.0388
     84  CG        14.8710  -10.9660   13.1590 C.3    76  GLU76       0.1160
     85  CD        15.3690  -11.3880   11.8200 C.2    76  GLU76       0.3649
     86  OE1       15.4710  -12.5970   11.5280 O.co2  76  GLU76      -0.2457
     87  OE2       15.8210  -10.5260   11.0070 O.co2  76  GLU76      -0.2457
     88  N         14.8250  -19.1200   14.3370 N.3    81  ALA81      -0.1245
     89  CA        14.6570  -18.5670   12.9900 C.3    81  ALA81       0.1562
     90  C         13.2680  -17.9200   12.7920 C.2    81  ALA81       0.2260
     91  O         12.5300  -18.2290   11.8350 O.2    81  ALA81      -0.2867
     92  CB        14.9470  -19.6370   11.9260 C.3    81  ALA81       0.0290
     93  N         10.9960  -14.1570   13.1260 N.3    83  LYS83      -0.1245
     94  CA        11.0590  -12.7070   13.1100 C.3    83  LYS83       0.1561
     95  C          9.7150  -12.1590   13.5250 C.2    83  LYS83       0.2260
     96  O          8.6760  -12.7940   13.3900 O.2    83  LYS83      -0.2867
     97  CB        11.4590  -12.1970   11.7430 C.3    83  LYS83       0.0271
     98  CG        10.4000  -12.4120   10.6510 C.3    83  LYS83       0.0035
     99  CD        10.9390  -11.9980    9.2840 C.3    83  LYS83       0.0206
    100  CE         9.8620  -11.9320    8.2420 C.3    83  LYS83       0.1093
    101  NZ         9.2480  -13.2840    8.0010 N.3    83  LYS83      -0.1314
    102  N          7.5910   -8.3060   13.4420 N.3    85  GLU85      -0.1245
    103  CA         7.4230   -6.9140   13.0110 C.3    85  GLU85       0.1567
    104  C          6.8880   -6.1130   14.1760 C.2    85  GLU85       0.2260
    105  O          5.7690   -6.3390   14.6500 O.2    85  GLU85      -0.2867
    106  CB         6.4680   -6.8430   11.8280 C.3    85  GLU85       0.0388
    107  CG         6.9460   -7.5700   10.6040 C.3    85  GLU85       0.1160
    108  CD         6.8230   -9.0900   10.5480 C.2    85  GLU85       0.3649
    109  OE1        6.1970   -9.6930   11.4810 O.co2  85  GLU85      -0.2457
    110  OE2        7.3760   -9.6720    9.5900 O.co2  85  GLU85      -0.2457
    111  N         18.3200  -10.2680   17.5260 N.3   110  ARG110     -0.1245
    112  CA        18.5410   -9.4320   16.3730 C.3   110  ARG110      0.1563
    113  C         17.5520   -8.2790   16.4310 C.2   110  ARG110      0.2260
    114  O         16.3580   -8.4740   16.7290 O.2   110  ARG110     -0.2867
    115  CB        18.3690  -10.2050   15.0560 C.3   110  ARG110      0.0307
    116  CG        19.3360  -11.3200   14.8550 C.3   110  ARG110      0.0489
    117  CD        19.0740  -12.1670   13.6060 C.3   110  ARG110      0.2205
    118  NE        19.1570  -11.3740   12.4010 N.pl3 110  ARG110     -0.0865
    119  CZ        18.9810  -11.8450   11.1630 C.cat 110  ARG110      0.5346
    120  NH1       18.7170  -13.1390   10.9380 N.pl3 110  ARG110      0.1354
    121  NH2       19.0380  -10.9940   10.1510 N.pl3 110  ARG110      0.1354
    122  N         16.3610   -5.1270   13.8240 N.3   112  ASP112     -0.1239
    123  CA        16.4290   -4.8080   12.3890 C.3   112  ASP112      0.1674
    124  C         15.7750   -3.4680   12.1140 C.2   112  ASP112      0.2266
    125  O         14.6920   -3.1680   12.6340 O.2   112  ASP112     -0.2867
    126  CB        15.6330   -5.8320   11.5630 C.3   112  ASP112      0.1410
    127  CG        16.0770   -7.2520   11.7180 C.2   112  ASP112      0.3668
    128  OD1       17.1500   -7.5380   12.2890 O.co2 112  ASP112     -0.2456
    129  OD2       15.3120   -8.1470   11.2440 O.co2 112  ASP112     -0.2456
    130  N         14.7180   -1.6950    8.5440 N.3   114  GLN114     -0.1245
    131  CA        14.6010   -2.0840    7.1510 C.3   114  GLN114      0.1566
    132  C         13.9360   -0.9810    6.2970 C.2   114  GLN114      0.2260
    133  O         12.9570   -0.3480    6.6670 O.2   114  GLN114     -0.2867
    134  CB        13.7670   -3.3580    7.0810 C.3   114  GLN114      0.0367
    135  CG        13.5160   -3.8240    5.6440 C.3   114  GLN114      0.0905
    136  CD        12.8940   -5.1720    5.5430 C.2   114  GLN114      0.2608
    137  OE1       12.0840   -5.5180    6.4290 O.2   114  GLN114     -0.2717
    138  NE2       13.2450   -5.9320    4.5240 N.am  114  GLN114     -0.0878
    139  N         11.5380   -0.5360    4.0860 N.3   116  ALA116     -0.1245
    140  CA        10.3070   -1.2400    3.7510 C.3   116  ALA116      0.1562
    141  C          9.8140   -1.0570    2.3240 C.2   116  ALA116      0.2260
    142  O          9.3700   -2.0520    1.7160 O.2   116  ALA116     -0.2867
    143  CB         9.2150   -0.8810    4.7480 C.3   116  ALA116      0.0290
@<TRIPOS>BOND
     1    48    49    1
     2    48    47    1
     3    47    46    1
     4    61    60    1
     5    46    45    1
     6    41    42    1
     7    59    60   ar
     8    59    57   ar
     9    60    58   ar
    10    42    45    1
    11    42    43    1
    12    57    55   ar
    13    58    56   ar
    14    43    50   am
    15    43    44    2
    16    50    51    1
    17    55    56   ar
    18    55    54    1
    19    51    54    1
    20    51    52    1
    21   142   141    2
    22    52    53    2
    23   141   140    1
    24    29    30    2
    25    29    28    1
    26    33    35   ar
    27    33    32   ar
    28    31    28    1
    29    31    32    1
    30   140   139    1
    31   140   143    1
    32    35    36   ar
    33    28    27    1
    34    32    34   ar
    35   138   136   am
    36    36    34   ar
    37    36    38   ar
    38    27    25   am
    39    34    37   ar
    40   136   135    1
    41   136   137    2
    42   135   134    1
    43    26    25    2
    44    25    24    1
    45    38    40   ar
    46   132   133    2
    47   132   131    1
    48    70    69    1
    49    37    39   ar
    50   134   131    1
    51   131   130    1
    52    69    68    1
    53    40    39   ar
    54    24    23    1
    55   101   100    1
    56    12    11    2
    57   100    99    1
    58    68    67    1
    59    23    11   am
    60    66    67    1
    61    66    63    1
    62     8     6   am
    63    62    63    1
    64    11    10    1
    65    99    98    1
    66    63    64    1
    67     6     7    2
    68     6     5    1
    69   110   108   ar
    70     4     3    2
    71    10     9    1
    72    10    13    1
    73    77    76    1
    74   121   119    1
    75    65    64    2
    76    78    76    1
    77     3     9   am
    78     3     2    1
    79   108   107    1
    80   108   109   ar
    81     5     2    1
    82   107   106    1
    83    98    97    1
    84    13    14    1
    85   120   119    1
    86    87    85   ar
    87    76    75    1
    88   119   118    2
    89   129   127   ar
    90    14    15   ar
    91    14    16   ar
    92     2     1    1
    93    86    85   ar
    94   126   127    1
    95   126   123    1
    96   127   128   ar
    97    15    17   ar
    98    97    94    1
    99    85    84    1
   100   106   103    1
   101    91    90    2
   102    19    16   ar
   103    19    21   ar
   104    16    18   ar
   105    92    89    1
   106   124   123    1
   107   124   125    2
   108    75    72    1
   109    17    18   ar
   110   123   122    1
   111   118   117    1
   112    21    22   ar
   113    18    20   ar
   114    90    89    1
   115    89    88    1
   116   103   102    1
   117   103   104    1
   118    22    20   ar
   119    94    93    1
   120    94    95    1
   121    84    83    1
   122    71    72    1
   123    96    95    2
   124    72    73    1
   125   117   116    1
   126   104   105    2
   127    83    80    1
   128    73    74    2
   129   116   115    1
   130   115   112    1
   131    80    79    1
   132    80    81    1
   133   112   113    1
   134   112   111    1
   135   113   114    2
   136    81    82    2
