@<TRIPOS>MOLECULE
tmp/1w8yA00.pdb
 139 131 0 0 0
SMALL
GASTEIGER

@<TRIPOS>ATOM
      1  N         -0.9930   -7.4480   31.3900 N.3    48  ALA48      -0.1231
      2  CA        -1.1080   -6.2540   32.2120 C.3    48  ALA48       0.1694
      3  C         -0.0870   -6.4650   33.3230 C.2    48  ALA48       0.2592
      4  O          0.9740   -7.0390   33.0790 O.2    48  ALA48      -0.2718
      5  CB        -2.5110   -6.1080   32.7830 C.3    48  ALA48       0.0304
      6  N         -0.4120   -6.0380   34.5380 N.am   49  SER49      -0.1952
      7  CA         0.5090   -6.1700   35.6630 C.3    49  SER49       0.1924
      8  C          0.9020   -7.5960   36.0330 C.2    49  SER49       0.2314
      9  O          1.7750   -7.7860   36.8710 O.2    49  SER49      -0.2863
     10  CB        -0.0690   -5.4980   36.8990 C.3    49  SER49       0.2116
     11  OG         0.0420   -4.2400   36.8500 O.3    49  SER49      -0.2180
     12  N          4.5110   -8.6590   35.9600 N.3    52  LYS52      -0.1245
     13  CA         5.4320   -8.4880   37.0720 C.3    52  LYS52       0.1561
     14  C          5.9090   -9.8180   37.6570 C.2    52  LYS52       0.2260
     15  O          6.9660   -9.8810   38.2870 O.2    52  LYS52      -0.2867
     16  CB         4.7980   -7.6140   38.1590 C.3    52  LYS52       0.0271
     17  CG         4.7300   -6.1420   37.7880 C.3    52  LYS52       0.0035
     18  CD         4.3420   -5.3070   38.9840 C.3    52  LYS52       0.0206
     19  CE         4.3670   -3.8190   38.6720 C.3    52  LYS52       0.1093
     20  NZ         3.2570   -3.3850   37.7850 N.3    52  LYS52      -0.1314
     21  N         -1.1450    9.1080   29.9060 N.3   142  ASP142     -0.1239
     22  CA        -0.9570    8.4580   31.1970 C.3   142  ASP142      0.1674
     23  C          0.2680    8.9850   31.9430 C.2   142  ASP142      0.2266
     24  O          0.5470    8.5650   33.0590 O.2   142  ASP142     -0.2867
     25  CB        -0.7870    6.9480   31.0150 C.3   142  ASP142      0.1410
     26  CG        -1.9820    6.2900   30.3440 C.2   142  ASP142      0.3668
     27  OD1       -3.1170    6.4680   30.8220 O.co2 142  ASP142     -0.2456
     28  OD2       -1.7790    5.5750   29.3430 O.co2 142  ASP142     -0.2456
     29  N          1.3780    5.9330   38.0870 N.3   147  TYR147     -0.1227
     30  CA         1.4980    4.6510   37.3830 C.3   147  TYR147      0.1736
     31  C          2.5390    4.7090   36.2740 C.2   147  TYR147      0.2596
     32  O          3.2640    3.7370   36.0510 O.2   147  TYR147     -0.2718
     33  CB         0.1520    4.2470   36.7680 C.3   147  TYR147      0.0548
     34  CG        -1.0140    4.2060   37.7400 C.ar  147  TYR147     -0.0200
     35  CD1       -1.2790    3.0640   38.4990 C.ar  147  TYR147     -0.0009
     36  CD2       -1.8470    5.3210   37.9070 C.ar  147  TYR147     -0.0009
     37  CE1       -2.3480    3.0310   39.4030 C.ar  147  TYR147      0.0417
     38  CE2       -2.9140    5.3050   38.8050 C.ar  147  TYR147      0.0417
     39  CZ        -3.1620    4.1570   39.5550 C.ar  147  TYR147      0.1957
     40  OH        -4.2000    4.1370   40.4710 O.3   147  TYR147     -0.2866
     41  N          2.6260    5.8610   35.6110 N.am  148  SER148     -0.1952
     42  CA         3.5320    6.0500   34.4770 C.3   148  SER148      0.1924
     43  C          4.6660    7.0660   34.6810 C.2   148  SER148      0.2314
     44  O          4.9690    7.8610   33.7890 O.2   148  SER148     -0.2863
     45  CB         2.7110    6.4720   33.2540 C.3   148  SER148      0.2116
     46  OG         1.4580    5.8060   33.2250 O.3   148  SER148     -0.2180
     47  N          1.5650   -3.8540   45.8130 N.3   297  PHE297     -0.1227
     48  CA         0.9110   -2.7010   45.2070 C.3   297  PHE297      0.1736
     49  C          1.2130   -2.5400   43.7030 C.2   297  PHE297      0.2596
     50  O          0.7720   -1.5750   43.0730 O.2   297  PHE297     -0.2718
     51  CB         1.3460   -1.4440   45.9670 C.3   297  PHE297      0.0547
     52  CG         1.1610   -1.5440   47.4620 C.ar  297  PHE297     -0.0202
     53  CD1       -0.1210   -1.5960   48.0250 C.ar  297  PHE297     -0.0042
     54  CD2        2.2640   -1.5730   48.3150 C.ar  297  PHE297     -0.0042
     55  CE1       -0.2940   -1.6740   49.4180 C.ar  297  PHE297     -0.0003
     56  CE2        2.0960   -1.6510   49.7100 C.ar  297  PHE297     -0.0003
     57  CZ         0.8170   -1.7000   50.2600 C.ar  297  PHE297     -0.0000
     58  N          1.9570   -3.4900   43.1380 N.am  298  SER298     -0.1952
     59  CA         2.3360   -3.4520   41.7270 C.3   298  SER298      0.1924
     60  C          2.9240   -2.1080   41.3740 C.2   298  SER298      0.2314
     61  O          2.3250   -1.3130   40.6430 O.2   298  SER298     -0.2863
     62  CB         1.1420   -3.7370   40.8190 C.3   298  SER298      0.2116
     63  OG         0.9990   -5.1260   40.6020 O.3   298  SER298     -0.2180
     64  N          4.8290    0.1250   39.3320 N.3   300  ASN300     -0.1240
     65  CA         5.2510    0.0840   37.9310 C.3   300  ASN300      0.1653
     66  C          6.6870    0.5600   37.7790 C.2   300  ASN300      0.2266
     67  O          7.4900   -0.0630   37.0780 O.2   300  ASN300     -0.2867
     68  CB         4.3470    0.9570   37.0520 C.3   300  ASN300      0.1155
     69  CG         2.9180    0.4460   36.9760 C.2   300  ASN300      0.2627
     70  OD1        2.6640   -0.7690   37.0210 O.2   300  ASN300     -0.2716
     71  ND2        1.9720    1.3780   36.8360 N.am  300  ASN300     -0.0877
     72  N          6.7890   -3.7820   33.9270 N.3   347  SER347     -0.1202
     73  CA         5.5940   -3.4920   34.7230 C.3   347  SER347      0.2020
     74  C          4.3170   -4.1380   34.2280 C.2   347  SER347      0.2619
     75  O          3.4820   -4.5490   35.0290 O.2   347  SER347     -0.2717
     76  CB         5.3670   -1.9800   34.8030 C.3   347  SER347      0.2103
     77  OG         4.8000   -1.4840   33.5950 O.3   347  SER347     -0.2182
     78  N          4.1610   -4.1980   32.9100 N.am  348  GLY348     -0.1942
     79  CA         2.9670   -4.7750   32.3170 C.3   348  GLY348      0.2014
     80  C          2.1180   -3.6810   31.6930 C.2   348  GLY348      0.2638
     81  O          1.0780   -3.9510   31.0930 O.2   348  GLY348     -0.2714
     82  N          2.5780   -2.4400   31.8400 N.am  349  LEU349     -0.1977
     83  CA         1.8980   -1.2590   31.3060 C.3   349  LEU349      0.1596
     84  C          1.7720   -1.2490   29.7830 C.2   349  LEU349      0.2287
     85  O          0.8400   -0.6640   29.2200 O.2   349  LEU349     -0.2864
     86  CB         2.6380    0.0130   31.7300 C.3   349  LEU349      0.0297
     87  CG         2.3650    0.6110   33.1100 C.3   349  LEU349      0.0022
     88  CD1        3.3190    1.7600   33.3680 C.3   349  LEU349      0.0001
     89  CD2        0.9320    1.0990   33.1840 C.3   349  LEU349      0.0001
     90  N          1.0700   -2.4930   26.0190 N.3   351  ARG351     -0.1245
     91  CA         0.1070   -3.3440   25.3160 C.3   351  ARG351      0.1563
     92  C          0.8660   -4.2100   24.3390 C.2   351  ARG351      0.2260
     93  O          0.2690   -4.9740   23.5930 O.2   351  ARG351     -0.2867
     94  CB        -0.9140   -2.5130   24.5430 C.3   351  ARG351      0.0307
     95  CG        -1.9360   -1.8500   25.4350 C.3   351  ARG351      0.0489
     96  CD        -3.0290   -1.1810   24.6330 C.3   351  ARG351      0.2205
     97  NE        -3.8770   -0.4210   25.5280 N.pl3 351  ARG351     -0.0865
     98  CZ        -4.8880   -0.9360   26.2170 C.cat 351  ARG351      0.5346
     99  NH1       -5.5970   -0.1560   27.0320 N.pl3 351  ARG351      0.1354
    100  NH2       -5.2130   -2.2190   26.0660 N.pl3 351  ARG351      0.1354
    101  N         -3.3190   -5.5270   46.5680 N.3   393  THR393     -0.1218
    102  CA        -4.4270   -5.4090   45.6350 C.3   393  THR393      0.1862
    103  C         -5.5660   -6.4120   45.8690 C.2   393  THR393      0.2287
    104  O         -6.5430   -6.4440   45.1220 O.2   393  THR393     -0.2866
    105  CB        -3.8970   -5.5190   44.2240 C.3   393  THR393      0.1770
    106  OG1       -3.4530   -6.8600   43.9760 O.3   393  THR393     -0.2211
    107  CG2       -2.7220   -4.5600   44.0600 C.3   393  THR393      0.0375
    108  N         -2.4110   -9.5540   40.6340 N.3   411  THR411     -0.1203
    109  CA        -3.4620   -8.9760   39.8170 C.3   411  THR411      0.1994
    110  C         -2.8740   -8.2870   38.6020 C.2   411  THR411      0.2618
    111  O         -1.6580   -8.2150   38.4330 O.2   411  THR411     -0.2717
    112  CB        -4.2360   -7.9260   40.5760 C.3   411  THR411      0.1784
    113  OG1       -3.3010   -7.0160   41.1640 O.3   411  THR411     -0.2211
    114  CG2       -5.1200   -8.5700   41.6520 C.3   411  THR411      0.0376
    115  N         -3.7650   -7.7720   37.7670 N.am  412  GLY412     -0.1942
    116  CA        -3.3760   -7.0590   36.5680 C.3   412  GLY412      0.2014
    117  C         -4.6260   -6.3700   36.0450 C.2   412  GLY412      0.2640
    118  O         -5.6190   -7.0310   35.7130 O.2   412  GLY412     -0.2714
    119  N         -4.5890   -5.0430   35.9800 N.am  413  THR413     -0.1936
    120  CA        -5.7320   -4.2910   35.4900 C.3   413  THR413      0.2028
    121  C         -5.3100   -3.3070   34.4220 C.2   413  THR413      0.2642
    122  O         -4.2910   -2.6360   34.5450 O.2   413  THR413     -0.2714
    123  CB        -6.4140   -3.4700   36.5920 C.3   413  THR413      0.1808
    124  OG1       -6.4680   -4.2250   37.8070 O.3   413  THR413     -0.2208
    125  CG2       -7.8130   -3.1070   36.1530 C.3   413  THR413      0.0379
    126  N         -6.1180   -3.2130   33.3790 N.am  414  MET414     -0.1962
    127  CA        -5.8520   -2.3070   32.2800 C.3   414  MET414      0.1736
    128  C         -7.1810   -2.1850   31.5780 C.2   414  MET414      0.2617
    129  O         -8.0680   -3.0190   31.7930 O.2   414  MET414     -0.2715
    130  CB        -4.8290   -2.9190   31.3240 C.3   414  MET414      0.0427
    131  CG        -4.3220   -1.9580   30.2760 C.3   414  MET414      0.0599
    132  SD        -3.0570   -2.6880   29.2460 S.3   414  MET414     -0.1393
    133  CE        -1.5930   -2.5810   30.3290 C.3   414  MET414      0.0692
    134  N         -7.3280   -1.1590   30.7440 N.am  415  SER415     -0.1950
    135  CA        -8.5770   -0.9890   30.0140 C.3   415  SER415      0.1924
    136  C         -8.7650   -2.2230   29.1370 C.2   415  SER415      0.2314
    137  O         -7.9370   -2.4980   28.2780 O.2   415  SER415     -0.2863
    138  CB        -8.5300    0.2630   29.1460 C.3   415  SER415      0.2116
    139  OG        -9.7990    0.5120   28.5720 O.3   415  SER415     -0.2180
@<TRIPOS>BOND
     1    93    92    2
     2    92    91    1
     3    94    91    1
     4    94    95    1
     5    96    95    1
     6    96    97    1
     7    91    90    1
     8    97    98    2
     9   100    98    1
    10    98    99    1
    11   137   136    2
    12   139   138    1
    13   136   135    1
    14   138   135    1
    15    85    84    2
    16   132   131    1
    17   132   133    1
    18    28    26   ar
    19    84    83    1
    20    21    22    1
    21   135   134    1
    22   131   130    1
    23    26    27   ar
    24    26    25    1
    25   134   128   am
    26    25    22    1
    27    81    80    2
    28    22    23    1
    29    83    86    1
    30    83    82    1
    31   130   127    1
    32     1     2    1
    33   128   129    2
    34   128   127    1
    35    80    82   am
    36    80    79    1
    37    86    87    1
    38    23    24    2
    39     2     5    1
    40     2     3    1
    41   127   126    1
    42    79    78    1
    43    78    74   am
    44     4     3    2
    45    87    89    1
    46    87    88    1
    47    46    45    1
    48    45    42    1
    49     3     6   am
    50   126   121   am
    51    77    76    1
    52    44    43    2
    53    72    73    1
    54    74    73    1
    55    74    75    2
    56   121   122    2
    57   121   120    1
    58    42    43    1
    59    42    41    1
    60     6     7    1
    61    73    76    1
    62   120   119    1
    63   120   123    1
    64    41    31   am
    65     7     8    1
    66     7    10    1
    67   118   117    2
    68    12    13    1
    69   119   117   am
    70     8     9    2
    71   117   116    1
    72    32    31    2
    73   125   123    1
    74    31    30    1
    75   116   115    1
    76   123   124    1
    77    33    30    1
    78    33    34    1
    79    71    69   am
    80    11    10    1
    81    69    70    2
    82    69    68    1
    83    68    65    1
    84    13    14    1
    85    13    16    1
    86    67    66    2
    87    30    29    1
    88    14    15    2
    89    34    36   ar
    90    34    35   ar
    91   115   110   am
    92    66    65    1
    93    20    19    1
    94    17    16    1
    95    17    18    1
    96    36    38   ar
    97    65    64    1
    98   111   110    2
    99    35    37   ar
   100   110   109    1
   101    19    18    1
   102    38    39   ar
   103    37    39   ar
   104    39    40    1
   105   109   112    1
   106   109   108    1
   107   112   113    1
   108   112   114    1
   109    63    62    1
   110    61    60    2
   111    62    59    1
   112    60    59    1
   113    59    58    1
   114    50    49    2
   115    58    49   am
   116    49    48    1
   117   106   105    1
   118   107   105    1
   119   105   102    1
   120   104   103    2
   121    48    47    1
   122    48    51    1
   123   102   103    1
   124   102   101    1
   125    51    52    1
   126    52    53   ar
   127    52    54   ar
   128    53    55   ar
   129    54    56   ar
   130    55    57   ar
   131    56    57   ar
