@<TRIPOS>MOLECULE
tmp/1w96A00.pdb
 175 166 0 0 0
SMALL
GASTEIGER

@<TRIPOS>ATOM
      1  N         17.9290   19.4080  126.9180 N.3    56  ILE56      -0.1245
      2  CA        17.5200   20.2040  125.7630 C.3    56  ILE56       0.1561
      3  C         18.6840   20.5890  124.8500 C.2    56  ILE56       0.2260
      4  O         18.5260   20.6370  123.6310 O.2    56  ILE56      -0.2867
      5  CB        16.7700   21.4880  126.2140 C.3    56  ILE56       0.0252
      6  CG1       16.3660   22.3270  124.9930 C.3    56  ILE56       0.0019
      7  CG2       17.6460   22.3050  127.1460 C.3    56  ILE56       0.0019
      8  CD1       15.3700   21.6350  124.0840 C.3    56  ILE56       0.0001
      9  N         19.4280   17.6610  122.5260 N.3    59  VAL59      -0.1231
     10  CA        18.3330   17.4690  121.5770 C.3    59  VAL59       0.1692
     11  C         18.3340   18.5740  120.5170 C.2    59  VAL59       0.2591
     12  O         18.1670   18.2990  119.3260 O.2    59  VAL59      -0.2718
     13  CB        16.9600   17.4680  122.2840 C.3    59  VAL59       0.0266
     14  CG1       15.8440   17.4380  121.2490 C.3    59  VAL59       0.0020
     15  CG2       16.8470   16.2530  123.2060 C.3    59  VAL59       0.0020
     16  N         18.5210   19.8190  120.9490 N.am   60  LYS60      -0.1980
     17  CA        18.5260   20.9480  120.0130 C.3    60  LYS60       0.1596
     18  C         19.6730   20.8530  119.0070 C.2    60  LYS60       0.2287
     19  O         19.4880   21.1220  117.8150 O.2    60  LYS60      -0.2864
     20  CB        18.5960   22.2750  120.7830 C.3    60  LYS60       0.0298
     21  CG        18.5560   23.5280  119.9020 C.3    60  LYS60       0.0038
     22  CD        17.3550   23.5180  118.9550 C.3    60  LYS60       0.0206
     23  CE        17.0600   24.9090  118.3760 C.3    60  LYS60       0.1093
     24  NZ        18.2210   25.5440  117.6810 N.3    60  LYS60      -0.1314
     25  N         18.7580   18.0050  116.4740 N.3    63  ARG63      -0.1231
     26  CA        17.6990   18.3900  115.5520 C.3    63  ARG63       0.1694
     27  C         18.1030   19.4850  114.5790 C.2    63  ARG63       0.2592
     28  O         17.7620   19.4140  113.3980 O.2    63  ARG63      -0.2718
     29  CB        16.4480   18.8340  116.3050 C.3    63  ARG63       0.0321
     30  CG        15.7210   17.7020  117.0000 C.3    63  ARG63       0.0489
     31  CD        14.4510   18.2180  117.6350 C.3    63  ARG63       0.2205
     32  NE        13.7430   17.1610  118.3440 N.pl3  63  ARG63      -0.0865
     33  CZ        12.7240   17.3730  119.1700 C.cat  63  ARG63       0.5346
     34  NH1       12.2920   18.6050  119.3930 N.pl3  63  ARG63       0.1354
     35  NH2       12.1480   16.3510  119.7850 N.pl3  63  ARG63       0.1354
     36  N         18.8230   20.4940  115.0610 N.am   64  SER64      -0.1952
     37  CA        19.2200   21.5810  114.1750 C.3    64  SER64       0.1924
     38  C         20.2050   21.1200  113.1050 C.2    64  SER64       0.2314
     39  O         20.0540   21.4640  111.9340 O.2    64  SER64      -0.2863
     40  CB        19.8110   22.7510  114.9710 C.3    64  SER64       0.2116
     41  OG        18.8040   23.4260  115.7100 O.3    64  SER64      -0.2180
     42  N         18.5030   18.6550  110.5950 N.3    67  LYS67      -0.1245
     43  CA        17.5930   19.3430  109.6860 C.3    67  LYS67       0.1561
     44  C         18.4050   19.9480  108.5450 C.2    67  LYS67       0.2260
     45  O         18.0180   19.8760  107.3800 O.2    67  LYS67      -0.2867
     46  CB        16.8280   20.4510  110.4150 C.3    67  LYS67       0.0271
     47  CG        15.8860   21.2420  109.5070 C.3    67  LYS67       0.0035
     48  CD        14.8190   20.3410  108.8900 C.3    67  LYS67       0.0206
     49  CE        13.9340   21.1070  107.9160 C.3    67  LYS67       0.1093
     50  NZ        12.8960   20.2400  107.2830 N.3    67  LYS67      -0.1314
     51  N         17.0430   30.3100  120.3270 N.3   376  PRO376     -0.2116
     52  CA        16.0190   30.2240  119.2780 C.3   376  PRO376      0.1372
     53  C         15.2780   31.5420  119.0210 C.2   376  PRO376      0.2244
     54  O         14.6860   31.7270  117.9610 O.2   376  PRO376     -0.2868
     55  CB        15.1020   29.1100  119.7830 C.3   376  PRO376      0.0268
     56  CG        16.0710   28.1980  120.4950 C.3   376  PRO376      0.0207
     57  CD        16.9040   29.1930  121.2830 C.3   376  PRO376      0.0892
     58  N         17.2980   32.9360  116.4020 N.3   379  GLU379     -0.1231
     59  CA        17.1570   32.1110  115.2090 C.3   379  GLU379      0.1699
     60  C         15.8740   32.4410  114.4630 C.2   379  GLU379      0.2592
     61  O         15.8640   32.5220  113.2380 O.2   379  GLU379     -0.2718
     62  CB        17.1110   30.6320  115.5610 C.3   379  GLU379      0.0402
     63  CG        18.3960   30.0440  116.0990 C.3   379  GLU379      0.1161
     64  CD        18.2900   28.5400  116.1760 C.2   379  GLU379      0.3649
     65  OE1       17.3810   28.0540  116.8810 O.co2 379  GLU379     -0.2457
     66  OE2       19.0960   27.8490  115.5210 O.co2 379  GLU379     -0.2457
     67  N         14.7900   32.6170  115.2100 N.am  380  MET380     -0.1979
     68  CA        13.4920   32.9020  114.6080 C.3   380  MET380      0.1605
     69  C         13.4300   34.2290  113.8530 C.2   380  MET380      0.2287
     70  O         12.8910   34.2900  112.7470 O.2   380  MET380     -0.2864
     71  CB        12.3940   32.8690  115.6810 C.3   380  MET380      0.0413
     72  CG        10.9880   32.8580  115.1030 C.3   380  MET380      0.0598
     73  SD        10.7490   31.4780  113.9520 S.3   380  MET380     -0.1393
     74  CE         9.5210   30.4850  114.8150 C.3   380  MET380      0.0692
     75  N         16.3030   33.9030  110.9750 N.3   383  GLY383     -0.1210
     76  CA        16.1920   32.7910  110.0550 C.3   383  GLY383      0.1956
     77  C         17.4470   31.9330  110.0340 C.2   383  GLY383      0.2612
     78  O         17.5670   31.0260  109.2140 O.2   383  GLY383     -0.2717
     79  N         18.3850   32.2040  110.9390 N.am  384  VAL384     -0.1965
     80  CA        19.6240   31.4360  110.9810 C.3   384  VAL384      0.1727
     81  C         19.5710   30.2150  111.8990 C.2   384  VAL384      0.2616
     82  O         19.1640   30.3110  113.0550 O.2   384  VAL384     -0.2715
     83  CB        20.8150   32.3230  111.4250 C.3   384  VAL384      0.0290
     84  CG1       22.0930   31.4810  111.5470 C.3   384  VAL384      0.0023
     85  CG2       21.0210   33.4420  110.4140 C.3   384  VAL384      0.0023
     86  N         19.9720   29.0670  111.3600 N.am  385  ASN385     -0.1972
     87  CA        20.0420   27.8200  112.1250 C.3   385  ASN385      0.1688
     88  C         21.4240   27.9580  112.7770 C.2   385  ASN385      0.2292
     89  O         22.4460   27.7220  112.1340 O.2   385  ASN385     -0.2864
     90  CB        20.0130   26.6280  111.1570 C.3   385  ASN385      0.1181
     91  CG        20.1220   25.2900  111.8580 C.2   385  ASN385      0.2629
     92  OD1       20.8010   25.1610  112.8720 O.2   385  ASN385     -0.2716
     93  ND2       19.4690   24.2730  111.2980 N.am  385  ASN385     -0.0877
     94  N         22.2610   30.3550  105.2650 N.3   404  ASP404     -0.1239
     95  CA        21.3400   31.1800  106.0480 C.3   404  ASP404      0.1674
     96  C         21.8250   32.6150  106.1910 C.2   404  ASP404      0.2266
     97  O         21.0220   33.5420  106.3060 O.2   404  ASP404     -0.2867
     98  CB        21.1190   30.5890  107.4440 C.3   404  ASP404      0.1410
     99  CG        20.2380   29.3590  107.4230 C.2   404  ASP404      0.3668
    100  OD1       19.6140   29.0850  106.3770 O.co2 404  ASP404     -0.2456
    101  OD2       20.1600   28.6680  108.4570 O.co2 404  ASP404     -0.2456
    102  N         10.1720   37.9490  118.7260 N.3   441  CYS441     -0.1235
    103  CA        10.0200   36.7450  119.5310 C.3   441  CYS441      0.1677
    104  C         10.1430   37.0520  121.0170 C.2   441  CYS441      0.2270
    105  O         11.0250   37.7980  121.4380 O.2   441  CYS441     -0.2867
    106  CB        11.0690   35.6940  119.1420 C.3   441  CYS441      0.0956
    107  SG        10.9410   34.1350  120.0800 S.3   441  CYS441     -0.0801
    108  N         13.0240   15.5270  128.1460 N.3   462  LEU462     -0.1245
    109  CA        12.5650   16.7380  127.4750 C.3   462  LEU462      0.1561
    110  C         11.0800   16.6190  127.1630 C.2   462  LEU462      0.2260
    111  O         10.6880   15.9490  126.2090 O.2   462  LEU462     -0.2867
    112  CB        13.3450   16.9680  126.1750 C.3   462  LEU462      0.0270
    113  CG        12.9570   18.2230  125.3820 C.3   462  LEU462      0.0019
    114  CD1       13.3440   19.4580  126.1770 C.3   462  LEU462      0.0001
    115  CD2       13.6590   18.2270  124.0290 C.3   462  LEU462      0.0001
    116  N          8.0030   18.2150  125.7290 N.3   464  GLU464     -0.1245
    117  CA         7.6110   19.2830  124.8170 C.3   464  GLU464      0.1567
    118  C          6.1250   19.6180  124.8490 C.2   464  GLU464      0.2260
    119  O          5.2810   18.7510  125.0580 O.2   464  GLU464     -0.2867
    120  CB         8.0470   18.9190  123.3940 C.3   464  GLU464      0.0388
    121  CG         9.5530   18.6600  123.2980 C.3   464  GLU464      0.1160
    122  CD        10.0050   18.2440  121.9130 C.2   464  GLU464      0.3649
    123  OE1        9.8990   19.0610  120.9760 O.co2 464  GLU464     -0.2457
    124  OE2       10.4670   17.0950  121.7640 O.co2 464  GLU464     -0.2457
    125  N          1.9080   30.0500  116.7560 N.3   472  ASN472     -0.1225
    126  CA         3.2630   30.5960  116.7910 C.3   472  ASN472      0.1785
    127  C          3.9900   30.4310  118.1200 C.2   472  ASN472      0.2597
    128  O          4.7740   31.3000  118.5150 O.2   472  ASN472     -0.2718
    129  CB         3.2160   32.0830  116.4380 C.3   472  ASN472      0.1169
    130  CG         2.3840   32.3600  115.2060 C.2   472  ASN472      0.2627
    131  OD1        2.6910   31.8800  114.1170 O.2   472  ASN472     -0.2716
    132  ND2        1.3180   33.1330  115.3740 N.am  472  ASN472     -0.0877
    133  N          3.7470   29.3240  118.8100 N.am  473  VAL473     -0.1966
    134  CA         4.3990   29.1060  120.0910 C.3   473  VAL473      0.1727
    135  C          4.8750   27.6680  120.2720 C.2   473  VAL473      0.2616
    136  O          4.2180   26.7240  119.8370 O.2   473  VAL473     -0.2715
    137  CB         3.4510   29.4760  121.2570 C.3   473  VAL473      0.0290
    138  CG1        4.2020   29.4260  122.5700 C.3   473  VAL473      0.0023
    139  CG2        2.8660   30.8640  121.0390 C.3   473  VAL473      0.0023
    140  N          6.0350   27.5170  120.9020 N.am  474  TRP474     -0.1974
    141  CA         6.6140   26.2080  121.1830 C.3   474  TRP474      0.1640
    142  C          7.3210   26.3030  122.5330 C.2   474  TRP474      0.2290
    143  O          7.9050   27.3340  122.8570 O.2   474  TRP474     -0.2864
    144  CB         7.6310   25.8110  120.1100 C.3   474  TRP474      0.0576
    145  CG         8.2250   24.4500  120.3590 C.ar  474  TRP474      0.0006
    146  CD1        7.6780   23.2440  120.0260 C.ar  474  TRP474      0.0946
    147  CD2        9.4440   24.1610  121.0490 C.ar  474  TRP474      0.0152
    148  NE1        8.4830   22.2190  120.4660 N.ar  474  TRP474     -0.2442
    149  CE2        9.5740   22.7530  121.0970 C.ar  474  TRP474      0.0810
    150  CE3       10.4420   24.9520  121.6330 C.ar  474  TRP474      0.0012
    151  CZ2       10.6610   22.1210  121.7070 C.ar  474  TRP474      0.0191
    152  CZ3       11.5250   24.3210  122.2400 C.ar  474  TRP474      0.0001
    153  CH2       11.6240   22.9180  122.2710 C.ar  474  TRP474      0.0015
    154  N          8.6670   29.8320  123.6360 N.3   497  PHE497     -0.1241
    155  CA         9.0370   30.8390  122.6450 C.3   497  PHE497      0.1605
    156  C          7.7880   31.2090  121.8560 C.2   497  PHE497      0.2264
    157  O          7.0810   30.3310  121.3650 O.2   497  PHE497     -0.2867
    158  CB        10.0820   30.2700  121.6820 C.3   497  PHE497      0.0534
    159  CG        11.3720   29.8820  122.3440 C.ar  497  PHE497     -0.0203
    160  CD1       12.3850   30.8150  122.5230 C.ar  497  PHE497     -0.0042
    161  CD2       11.5690   28.5820  122.7950 C.ar  497  PHE497     -0.0042
    162  CE1       13.5840   30.4610  123.1440 C.ar  497  PHE497     -0.0003
    163  CE2       12.7630   28.2150  123.4210 C.ar  497  PHE497     -0.0003
    164  CZ        13.7710   29.1570  123.5940 C.ar  497  PHE497     -0.0000
    165  N          6.2400   33.7490  118.6920 N.3   499  PHE499     -0.1241
    166  CA         6.5300   34.6550  117.5930 C.3   499  PHE499      0.1605
    167  C          5.3310   35.5300  117.2540 C.2   499  PHE499      0.2264
    168  O          4.1850   35.1320  117.4490 O.2   499  PHE499     -0.2867
    169  CB         6.9660   33.8620  116.3540 C.3   499  PHE499      0.0534
    170  CG         7.1620   34.7120  115.1270 C.ar  499  PHE499     -0.0203
    171  CD1        6.0840   35.0370  114.3050 C.ar  499  PHE499     -0.0042
    172  CD2        8.4200   35.2220  114.8150 C.ar  499  PHE499     -0.0042
    173  CE1        6.2560   35.8620  113.1910 C.ar  499  PHE499     -0.0003
    174  CE2        8.6030   36.0480  113.7060 C.ar  499  PHE499     -0.0003
    175  CZ         7.5210   36.3690  112.8920 C.ar  499  PHE499     -0.0000
@<TRIPOS>BOND
     1    94    95    1
     2    95    96    1
     3    95    98    1
     4    96    97    2
     5   100    99   ar
     6    50    49    1
     7    45    44    2
     8    99    98    1
     9    99   101   ar
    10    49    48    1
    11    44    43    1
    12    48    47    1
    13    78    77    2
    14    47    46    1
    15    43    46    1
    16    43    42    1
    17    77    76    1
    18    77    79   am
    19    76    75    1
    20    85    83    1
    21    79    80    1
    22    80    83    1
    23    80    81    1
    24    90    91    1
    25    90    87    1
    26    93    91   am
    27    86    81   am
    28    86    87    1
    29    83    84    1
    30    91    92    2
    31    81    82    2
    32    39    38    2
    33    87    88    1
    34    89    88    2
    35    70    69    2
    36   175   173   ar
    37   175   174   ar
    38    38    37    1
    39   173   171   ar
    40    61    60    2
    41    28    27    2
    42   174   172   ar
    43    69    68    1
    44    73    74    1
    45    73    72    1
    46   131   130    2
    47    37    40    1
    48    37    36    1
    49   171   170   ar
    50    60    59    1
    51    60    67   am
    52    27    36   am
    53    27    26    1
    54    68    67    1
    55    68    71    1
    56   172   170   ar
    57    40    41    1
    58    72    71    1
    59   170   169    1
    60   130   132   am
    61   130   129    1
    62    59    62    1
    63    59    58    1
    64    66    64   ar
    65    26    29    1
    66    26    25    1
    67    62    63    1
    68    63    64    1
    69    64    65   ar
    70    29    30    1
    71   169   166    1
    72   129   126    1
    73   125   126    1
    74   126   127    1
    75    30    31    1
    76   167   168    2
    77   167   166    1
    78   166   165    1
    79    31    32    1
    80    24    23    1
    81    19    18    2
    82    54    53    2
    83   127   128    2
    84   127   133   am
    85    32    33    2
    86    23    22    1
    87   102   103    1
    88   133   134    1
    89    22    21    1
    90    18    17    1
    91    53    52    1
    92   106   103    1
    93   106   107    1
    94    33    34    1
    95    33    35    1
    96    52    55    1
    97    52    51    1
    98    12    11    2
    99   103   104    1
   100    55    56    1
   101   136   135    2
   102    21    20    1
   103    17    20    1
   104    17    16    1
   105   146   145   ar
   106   146   148   ar
   107   134   135    1
   108   134   137    1
   109   144   145    1
   110   144   141    1
   111   135   140   am
   112    51    57    1
   113   145   147   ar
   114   148   149   ar
   115    56    57    1
   116    11    16   am
   117    11    10    1
   118   140   141    1
   119   123   122   ar
   120   104   105    2
   121   139   137    1
   122   147   149   ar
   123   147   150   ar
   124   149   151   ar
   125   141   142    1
   126    14    13    1
   127   137   138    1
   128   157   156    2
   129    10    13    1
   130    10     9    1
   131   150   152   ar
   132   158   159    1
   133   158   155    1
   134   151   153   ar
   135   124   122   ar
   136   156   155    1
   137   122   121    1
   138   152   153   ar
   139    13    15    1
   140   159   160   ar
   141   159   161   ar
   142   160   162   ar
   143   142   143    2
   144   155   154    1
   145   161   163   ar
   146   162   164   ar
   147   121   120    1
   148   120   117    1
   149   163   164   ar
   150     4     3    2
   151   115   113    1
   152     8     6    1
   153   117   118    1
   154   117   116    1
   155   118   119    2
   156     3     2    1
   157     6     5    1
   158   113   112    1
   159   113   114    1
   160     2     5    1
   161     2     1    1
   162   112   109    1
   163   111   110    2
   164     5     7    1
   165   110   109    1
   166   109   108    1
