@<TRIPOS>MOLECULE
tmp/1w9bA08.pdb
 231 228 0 0 0
SMALL
GASTEIGER

@<TRIPOS>ATOM
      1  N         54.4750  120.5720   60.7340 N.3    37  GLN37      -0.1245
      2  CA        54.2230  121.9710   60.4560 C.3    37  GLN37       0.1566
      3  C         54.1950  122.9140   61.6400 C.2    37  GLN37       0.2260
      4  O         54.5250  124.0850   61.4790 O.2    37  GLN37      -0.2867
      5  CB        52.9310  122.1100   59.6560 C.3    37  GLN37       0.0367
      6  CG        52.9800  121.3600   58.3390 C.3    37  GLN37       0.0905
      7  CD        51.6760  121.4380   57.5830 C.2    37  GLN37       0.2608
      8  OE1       50.7830  120.6200   57.7850 O.2    37  GLN37      -0.2717
      9  NE2       51.5620  122.4180   56.6950 N.am   37  GLN37      -0.0878
     10  N         50.8640  112.0110   59.6360 N.3   139  HIS139     -0.1226
     11  CA        50.7370  113.1470   58.7390 C.3   139  HIS139      0.1752
     12  C         52.0560  113.3510   57.9780 C.2   139  HIS139      0.2596
     13  O         52.6910  114.4060   58.0610 O.2   139  HIS139     -0.2718
     14  CB        50.3150  114.4090   59.4970 C.3   139  HIS139      0.0759
     15  CG        49.6430  115.4360   58.6360 C.ar  139  HIS139      0.0818
     16  ND1       48.3500  115.8570   58.8540 N.ar  139  HIS139     -0.2268
     17  CD2       50.0950  116.1430   57.5720 C.ar  139  HIS139      0.1154
     18  CE1       48.0330  116.7840   57.9640 C.ar  139  HIS139      0.1986
     19  NE2       49.0750  116.9740   57.1770 N.ar  139  HIS139     -0.2212
     20  N         52.4820  112.2820   57.3020 N.am  140  TRP140     -0.1976
     21  CA        53.6700  112.2490   56.4390 C.3   140  TRP140      0.1640
     22  C         55.0630  112.2300   57.0510 C.2   140  TRP140      0.2290
     23  O         56.0380  111.9420   56.3500 O.2   140  TRP140     -0.2864
     24  CB        53.6230  113.3940   55.4230 C.3   140  TRP140      0.0576
     25  CG        52.3470  113.4930   54.6450 C.ar  140  TRP140      0.0006
     26  CD1       51.3490  112.5670   54.5670 C.ar  140  TRP140      0.0946
     27  CD2       51.9420  114.5950   53.8270 C.ar  140  TRP140      0.0152
     28  NE1       50.3430  113.0260   53.7470 N.ar  140  TRP140     -0.2442
     29  CE2       50.6820  114.2620   53.2810 C.ar  140  TRP140      0.0810
     30  CE3       52.5250  115.8220   53.5010 C.ar  140  TRP140      0.0012
     31  CZ2       49.9920  115.1310   52.4250 C.ar  140  TRP140      0.0191
     32  CZ3       51.8380  116.6810   52.6490 C.ar  140  TRP140      0.0001
     33  CH2       50.5850  116.3270   52.1190 C.ar  140  TRP140      0.0015
     34  N         47.1750  110.6910   56.5810 N.3   184  ASN184     -0.1225
     35  CA        46.6980  111.9240   55.9730 C.3   184  ASN184      0.1785
     36  C         46.7940  111.8830   54.4530 C.2   184  ASN184      0.2597
     37  O         47.8410  111.5300   53.9050 O.2   184  ASN184     -0.2718
     38  CB        47.4980  113.1190   56.4760 C.3   184  ASN184      0.1169
     39  CG        47.0170  114.4100   55.8750 C.2   184  ASN184      0.2627
     40  OD1       45.8640  114.7910   56.0640 O.2   184  ASN184     -0.2716
     41  ND2       47.8790  115.0710   55.1060 N.am  184  ASN184     -0.0877
     42  N         45.7000  112.2710   53.7940 N.am  185  GLN185     -0.1979
     43  CA        45.5950  112.3230   52.3300 C.3   185  GLN185      0.1601
     44  C         46.3150  111.1880   51.6190 C.2   185  GLN185      0.2287
     45  O         47.4290  111.3540   51.1210 O.2   185  GLN185     -0.2864
     46  CB        46.0840  113.6810   51.8140 C.3   185  GLN185      0.0394
     47  CG        45.3380  114.8560   52.4380 C.3   185  GLN185      0.0908
     48  CD        45.6930  116.2020   51.8240 C.2   185  GLN185      0.2608
     49  OE1       45.0920  117.2180   52.1630 O.2   185  GLN185     -0.2717
     50  NE2       46.6650  116.2160   50.9160 N.am  185  GLN185     -0.0878
     51  N         46.2700  109.8910   48.7560 N.3   187  TYR187     -0.1227
     52  CA        46.7770  110.1530   47.4120 C.3   187  TYR187      0.1736
     53  C         48.1140  110.8900   47.3440 C.2   187  TYR187      0.2596
     54  O         48.9060  110.6650   46.4290 O.2   187  TYR187     -0.2718
     55  CB        45.7150  110.9510   46.6430 C.3   187  TYR187      0.0548
     56  CG        46.0810  111.3290   45.2240 C.ar  187  TYR187     -0.0200
     57  CD1       45.6960  110.5250   44.1530 C.ar  187  TYR187     -0.0009
     58  CD2       46.7840  112.5070   44.9520 C.ar  187  TYR187     -0.0009
     59  CE1       45.9990  110.8860   42.8430 C.ar  187  TYR187      0.0417
     60  CE2       47.0940  112.8730   43.6520 C.ar  187  TYR187      0.0417
     61  CZ        46.6950  112.0580   42.6030 C.ar  187  TYR187      0.1957
     62  OH        46.9830  112.4330   41.3120 O.3   187  TYR187     -0.2866
     63  N         48.3800  111.7220   48.3450 N.am  188  SER188     -0.1952
     64  CA        49.5680  112.5680   48.3740 C.3   188  SER188      0.1924
     65  C         50.9650  111.9720   48.3810 C.2   188  SER188      0.2314
     66  O         51.7690  112.2920   47.5030 O.2   188  SER188     -0.2863
     67  CB        49.4320  113.5940   49.4930 C.3   188  SER188      0.2116
     68  OG        48.2360  114.3380   49.3290 O.3   188  SER188     -0.2180
     69  N         53.1830  112.6350   45.1590 N.3   192  ARG192     -0.1245
     70  CA        54.1530  113.7020   45.3800 C.3   192  ARG192      0.1563
     71  C         55.4760  113.2240   45.9600 C.2   192  ARG192      0.2260
     72  O         56.5290  113.7780   45.6440 O.2   192  ARG192     -0.2867
     73  CB        53.5530  114.7710   46.2920 C.3   192  ARG192      0.0307
     74  CG        52.2290  115.3300   45.7990 C.3   192  ARG192      0.0489
     75  CD        51.6340  116.3050   46.8030 C.3   192  ARG192      0.2205
     76  NE        52.4750  117.4880   46.9670 N.pl3 192  ARG192     -0.0865
     77  CZ        52.5140  118.5110   46.1160 C.cat 192  ARG192      0.5346
     78  NH1       51.7540  118.5100   45.0260 N.pl3 192  ARG192      0.1354
     79  NH2       53.3200  119.5360   46.3490 N.pl3 192  ARG192      0.1354
     80  N         42.1990  113.1240   50.3610 N.3   255  ILE255     -0.1245
     81  CA        42.2360  114.4610   49.8010 C.3   255  ILE255      0.1561
     82  C         41.1950  114.3210   48.6890 C.2   255  ILE255      0.2260
     83  O         41.1980  113.3410   47.9270 O.2   255  ILE255     -0.2867
     84  CB        43.6110  114.8880   49.2160 C.3   255  ILE255      0.0252
     85  CG1       43.4530  116.2020   48.4330 C.3   255  ILE255      0.0019
     86  CG2       44.2110  113.8000   48.3370 C.3   255  ILE255      0.0019
     87  CD1       43.0120  117.3930   49.2770 C.3   255  ILE255      0.0001
     88  N         38.7660  116.2550   45.6110 N.3   257  ARG257     -0.1245
     89  CA        38.6470  117.3340   44.6480 C.3   257  ARG257      0.1563
     90  C         37.4440  116.9160   43.8380 C.2   257  ARG257      0.2260
     91  O         37.0760  115.7350   43.8260 O.2   257  ARG257     -0.2867
     92  CB        39.8270  117.3640   43.6710 C.3   257  ARG257      0.0307
     93  CG        41.1710  117.7390   44.2410 C.3   257  ARG257      0.0489
     94  CD        42.2030  117.7550   43.1190 C.3   257  ARG257      0.2205
     95  NE        43.5670  117.8400   43.6330 N.pl3 257  ARG257     -0.0865
     96  CZ        44.6580  117.5580   42.9270 C.cat 257  ARG257      0.5346
     97  NH1       44.5600  117.1770   41.6600 N.pl3 257  ARG257      0.1354
     98  NH2       45.8490  117.5920   43.5120 N.pl3 257  ARG257      0.1354
     99  N         41.7160  109.3850   41.0540 N.3   280  PHE280     -0.1241
    100  CA        42.0120  110.2580   42.1840 C.3   280  PHE280      0.1605
    101  C         41.3260  109.7950   43.4660 C.2   280  PHE280      0.2264
    102  O         41.9640  109.6890   44.5130 O.2   280  PHE280     -0.2867
    103  CB        41.5990  111.6940   41.8480 C.3   280  PHE280      0.0534
    104  CG        42.1340  112.7260   42.8020 C.ar  280  PHE280     -0.0203
    105  CD1       43.4040  113.2620   42.6170 C.ar  280  PHE280     -0.0042
    106  CD2       41.3790  113.1460   43.8920 C.ar  280  PHE280     -0.0042
    107  CE1       43.9100  114.2110   43.5020 C.ar  280  PHE280     -0.0003
    108  CE2       41.8770  114.0970   44.7870 C.ar  280  PHE280     -0.0003
    109  CZ        43.1430  114.6240   44.5950 C.ar  280  PHE280     -0.0000
    110  N         39.7720  121.2300   49.0030 N.3   328  TYR328     -0.1227
    111  CA        40.3030  122.5520   48.7110 C.3   328  TYR328      0.1736
    112  C         39.8130  123.1290   47.3990 C.2   328  TYR328      0.2595
    113  O         39.3750  124.2790   47.3540 O.2   328  TYR328     -0.2718
    114  CB        41.8300  122.5320   48.7030 C.3   328  TYR328      0.0548
    115  CG        42.4300  122.3630   50.0700 C.ar  328  TYR328     -0.0200
    116  CD1       42.6170  123.4630   50.9010 C.ar  328  TYR328     -0.0009
    117  CD2       42.8200  121.1070   50.5320 C.ar  328  TYR328     -0.0009
    118  CE1       43.1790  123.3260   52.1520 C.ar  328  TYR328      0.0417
    119  CE2       43.3880  120.9550   51.7900 C.ar  328  TYR328      0.0417
    120  CZ        43.5620  122.0750   52.5940 C.ar  328  TYR328      0.1957
    121  OH        44.1240  121.9520   53.8400 O.3   328  TYR328     -0.2866
    122  N         39.8800  122.3380   46.3310 N.am  329  PHE329     -0.1976
    123  CA        39.4770  122.8370   45.0260 C.3   329  PHE329      0.1639
    124  C         39.0100  121.7830   44.0270 C.2   329  PHE329      0.2290
    125  O         39.0430  120.5740   44.2930 O.2   329  PHE329     -0.2864
    126  CB        40.6010  123.6960   44.4150 C.3   329  PHE329      0.0560
    127  CG        41.9330  123.0020   44.3340 C.ar  329  PHE329     -0.0200
    128  CD1       42.1790  122.0450   43.3540 C.ar  329  PHE329     -0.0042
    129  CD2       42.9470  123.3170   45.2320 C.ar  329  PHE329     -0.0042
    130  CE1       43.4180  121.4170   43.2590 C.ar  329  PHE329     -0.0003
    131  CE2       44.1910  122.6960   45.1460 C.ar  329  PHE329     -0.0003
    132  CZ        44.4250  121.7410   44.1600 C.ar  329  PHE329     -0.0000
    133  N         42.6130  131.1060   44.2260 N.3   369  PHE369     -0.1227
    134  CA        42.9150  130.3080   45.4110 C.3   369  PHE369      0.1736
    135  C         44.3750  130.5190   45.7970 C.2   369  PHE369      0.2595
    136  O         44.6940  130.7460   46.9640 O.2   369  PHE369     -0.2718
    137  CB        42.6600  128.8250   45.1310 C.3   369  PHE369      0.0547
    138  CG        42.9660  127.9270   46.2980 C.ar  369  PHE369     -0.0202
    139  CD1       42.0920  127.8460   47.3750 C.ar  369  PHE369     -0.0042
    140  CD2       44.1260  127.1640   46.3200 C.ar  369  PHE369     -0.0042
    141  CE1       42.3720  127.0220   48.4610 C.ar  369  PHE369     -0.0003
    142  CE2       44.4170  126.3370   47.4000 C.ar  369  PHE369     -0.0003
    143  CZ        43.5370  126.2650   48.4720 C.ar  369  PHE369     -0.0000
    144  N         45.2600  130.4310   44.8080 N.am  370  GLU370     -0.1979
    145  CA        46.6850  130.6200   45.0410 C.3   370  GLU370      0.1602
    146  C         47.3630  131.1880   43.8040 C.2   370  GLU370      0.2287
    147  O         47.2770  130.6190   42.7160 O.2   370  GLU370     -0.2864
    148  CB        47.3480  129.2990   45.4430 C.3   370  GLU370      0.0415
    149  CG        48.8520  129.4150   45.6860 C.3   370  GLU370      0.1163
    150  CD        49.4840  128.1180   46.1520 C.2   370  GLU370      0.3649
    151  OE1       49.1370  127.0420   45.6180 O.co2 370  GLU370     -0.2457
    152  OE2       50.3380  128.1740   47.0610 O.co2 370  GLU370     -0.2457
    153  N         45.9890  128.7170   40.9410 N.3   380  ILE380     -0.1245
    154  CA        44.9240  127.8000   41.3340 C.3   380  ILE380      0.1561
    155  C         43.6970  128.6430   41.6580 C.2   380  ILE380      0.2260
    156  O         43.8190  129.7280   42.2190 O.2   380  ILE380     -0.2867
    157  CB        45.3130  126.9790   42.5810 C.3   380  ILE380      0.0252
    158  CG1       46.5640  126.1440   42.2910 C.3   380  ILE380      0.0019
    159  CG2       44.1640  126.0540   42.9910 C.3   380  ILE380      0.0019
    160  CD1       47.0540  125.3530   43.4830 C.3   380  ILE380      0.0001
    161  N         39.8640  119.0900   56.6400 N.3   407  GLU407     -0.1245
    162  CA        40.6720  120.2130   56.1580 C.3   407  GLU407      0.1567
    163  C         39.9140  120.9620   55.0740 C.2   407  GLU407      0.2260
    164  O         39.3140  120.3540   54.1950 O.2   407  GLU407     -0.2867
    165  CB        42.0150  119.7650   55.5640 C.3   407  GLU407      0.0388
    166  CG        43.0810  119.3860   56.5770 C.3   407  GLU407      0.1160
    167  CD        44.4110  119.0720   55.9270 C.2   407  GLU407      0.3649
    168  OE1       44.7370  119.7070   54.9060 O.co2 407  GLU407     -0.2457
    169  OE2       45.1380  118.1960   56.4350 O.co2 407  GLU407     -0.2457
    170  N         41.4260  124.4070   57.7880 N.3   455  TRP455     -0.1241
    171  CA        42.8650  124.2090   57.7970 C.3   455  TRP455      0.1605
    172  C         43.7070  125.3220   58.3960 C.2   455  TRP455      0.2264
    173  O         43.5810  126.4930   58.0520 O.2   455  TRP455     -0.2867
    174  CB        43.4090  123.8390   56.4180 C.3   455  TRP455      0.0550
    175  CG        44.9060  123.6770   56.4480 C.ar  455  TRP455      0.0003
    176  CD1       45.8240  124.4530   55.8060 C.ar  455  TRP455      0.0946
    177  CD2       45.6560  122.7340   57.2310 C.ar  455  TRP455      0.0152
    178  NE1       47.0980  124.0660   56.1470 N.ar  455  TRP455     -0.2442
    179  CE2       47.0240  123.0120   57.0190 C.ar  455  TRP455      0.0810
    180  CE3       45.3040  121.6860   58.0920 C.ar  455  TRP455      0.0012
    181  CZ2       48.0450  122.2790   57.6370 C.ar  455  TRP455      0.0191
    182  CZ3       46.3190  120.9550   58.7060 C.ar  455  TRP455      0.0001
    183  CH2       47.6730  121.2570   58.4740 C.ar  455  TRP455      0.0015
    184  N         54.5090  125.3990   55.5520 N.3   462  GLU462     -0.1231
    185  CA        53.6440  124.7530   54.5840 C.3   462  GLU462      0.1699
    186  C         54.4710  123.8940   53.6510 C.2   462  GLU462      0.2592
    187  O         55.4200  124.3740   53.0320 O.2   462  GLU462     -0.2718
    188  CB        52.8300  125.7910   53.8130 C.3   462  GLU462      0.0402
    189  CG        51.7440  126.4420   54.6630 C.3   462  GLU462      0.1161
    190  CD        50.7460  125.4350   55.2270 C.2   462  GLU462      0.3649
    191  OE1       50.6470  124.3150   54.6870 O.co2 462  GLU462     -0.2457
    192  OE2       50.0490  125.7650   56.2060 O.co2 462  GLU462     -0.2457
    193  N         54.1250  122.6100   53.5840 N.am  463  PHE463     -0.1962
    194  CA        54.8330  121.6520   52.7370 C.3   463  PHE463      0.1771
    195  C         55.0470  122.2100   51.3340 C.2   463  PHE463      0.2620
    196  O         54.1080  122.7070   50.7170 O.2   463  PHE463     -0.2715
    197  CB        54.0530  120.3370   52.6530 C.3   463  PHE463      0.0574
    198  CG        53.9310  119.6200   53.9650 C.ar  463  PHE463     -0.0200
    199  CD1       55.0440  119.0230   54.5510 C.ar  463  PHE463     -0.0042
    200  CD2       52.6940  119.4960   54.5950 C.ar  463  PHE463     -0.0042
    201  CE1       54.9350  118.3200   55.7500 C.ar  463  PHE463     -0.0003
    202  CE2       52.5710  118.7950   55.7930 C.ar  463  PHE463     -0.0003
    203  CZ        53.6900  118.1990   56.3700 C.ar  463  PHE463     -0.0000
    204  N         56.3030  122.1960   50.8900 N.am  464  ASN464     -0.1958
    205  CA        56.7150  122.6880   49.5680 C.3   464  ASN464      0.1819
    206  C         56.7860  124.2020   49.4340 C.2   464  ASN464      0.2621
    207  O         57.4160  124.7030   48.5040 O.2   464  ASN464     -0.2715
    208  CB        55.7860  122.1780   48.4560 C.3   464  ASN464      0.1195
    209  CG        55.4970  120.7060   48.5650 C.2   464  ASN464      0.2630
    210  OD1       54.3420  120.3020   48.6820 O.2   464  ASN464     -0.2716
    211  ND2       56.5410  119.8960   48.5570 N.am  464  ASN464     -0.0877
    212  N         56.1350  124.9270   50.3390 N.am  465  LYS465     -0.1977
    213  CA        56.1000  126.3850   50.2560 C.3   465  LYS465      0.1596
    214  C         56.8510  127.1390   51.3450 C.2   465  LYS465      0.2287
    215  O         56.9610  128.3620   51.2850 O.2   465  LYS465     -0.2864
    216  CB        54.6440  126.8640   50.2310 C.3   465  LYS465      0.0298
    217  CG        53.7880  126.2100   49.1580 C.3   465  LYS465      0.0038
    218  CD        54.2700  126.5780   47.7660 C.3   465  LYS465      0.0206
    219  CE        53.5450  125.7760   46.6950 C.3   465  LYS465      0.1093
    220  NZ        52.0690  125.9790   46.7300 N.3   465  LYS465     -0.1314
    221  N         48.3130  130.0220   55.9830 N.3   471  PHE471     -0.1241
    222  CA        47.0060  129.3620   55.9340 C.3   471  PHE471      0.1605
    223  C         46.2260  129.5310   57.2360 C.2   471  PHE471      0.2264
    224  O         45.0640  129.1430   57.3230 O.2   471  PHE471     -0.2867
    225  CB        47.1740  127.8540   55.7110 C.3   471  PHE471      0.0534
    226  CG        47.1890  127.4310   54.2720 C.ar  471  PHE471     -0.0203
    227  CD1       45.9990  127.1640   53.6010 C.ar  471  PHE471     -0.0042
    228  CD2       48.3900  127.2450   53.6010 C.ar  471  PHE471     -0.0042
    229  CE1       46.0080  126.7050   52.2820 C.ar  471  PHE471     -0.0003
    230  CE2       48.4110  126.7860   52.2810 C.ar  471  PHE471     -0.0003
    231  CZ        47.2190  126.5190   51.6210 C.ar  471  PHE471     -0.0000
@<TRIPOS>BOND
     1   153   154    1
     2    99   100    1
     3    62    61    1
     4   154   155    1
     5   154   157    1
     6   155   156    2
     7    97    96    1
     8   103   100    1
     9   103   104    1
    10   100   101    1
    11   158   157    1
    12   158   160    1
    13   157   159    1
    14    61    59   ar
    15    61    60   ar
    16   105   104   ar
    17   105   107   ar
    18   147   146    2
    19   104   106   ar
    20    59    57   ar
    21    96    98    1
    22    96    95    2
    23    94    95    1
    24    94    93    1
    25   130   128   ar
    26   130   132   ar
    27   128   127   ar
    28   101   102    2
    29   107   109   ar
    30    60    58   ar
    31    92    93    1
    32    92    89    1
    33   146   145    1
    34    91    90    2
    35    90    89    1
    36   106   108   ar
    37   124   125    2
    38   124   123    1
    39    57    56   ar
    40   132   131   ar
    41   133   134    1
    42   127   126    1
    43   127   129   ar
    44   126   123    1
    45   109   108   ar
    46    89    88    1
    47   144   145    1
    48   144   135   am
    49    58    56   ar
    50   123   122    1
    51    78    77    1
    52   145   148    1
    53   137   134    1
    54   137   138    1
    55   131   129   ar
    56    69    70    1
    57    56    55    1
    58    70    71    1
    59    70    73    1
    60   134   135    1
    61   148   149    1
    62   151   150   ar
    63    72    71    2
    64   149   150    1
    65   135   136    2
    66    74    73    1
    67    74    75    1
    68    77    79    1
    69    77    76    2
    70   150   152   ar
    71   138   140   ar
    72   138   139   ar
    73   140   142   ar
    74   122   112   am
    75    54    53    2
    76    55    52    1
    77   219   220    1
    78   219   218    1
    79    75    76    1
    80    53    52    1
    81    53    63   am
    82   113   112    2
    83   139   141   ar
    84   112   111    1
    85   142   143   ar
    86    52    51    1
    87    66    65    2
    88   218   217    1
    89    83    82    2
    90    86    84    1
    91    63    64    1
    92    64    65    1
    93    64    67    1
    94    85    84    1
    95    85    87    1
    96   208   209    1
    97   208   205    1
    98   141   143   ar
    99   207   206    2
   100   211   209   am
   101   209   210    2
   102    82    81    1
   103   114   111    1
   104   114   115    1
   105   111   110    1
   106   217   216    1
   107    84    81    1
   108    68    67    1
   109   206   205    1
   110   206   212   am
   111   205   204    1
   112    81    80    1
   113   115   117   ar
   114   115   116   ar
   115   216   213    1
   116   213   212    1
   117   213   214    1
   118   117   119   ar
   119   196   195    2
   120   204   195   am
   121   116   118   ar
   122    50    48   am
   123    45    44    2
   124   215   214    2
   125   195   194    1
   126    44    43    1
   127   231   230   ar
   128   231   229   ar
   129   119   120   ar
   130    46    43    1
   131    46    47    1
   132    48    49    2
   133    48    47    1
   134    33    31   ar
   135    33    32   ar
   136   118   120   ar
   137   230   228   ar
   138   229   227   ar
   139    43    42    1
   140    31    29   ar
   141   120   121    1
   142    32    30   ar
   143   197   194    1
   144   197   198    1
   145   194   193    1
   146   187   186    2
   147    29    28   ar
   148    29    27   ar
   149    30    27   ar
   150   193   186   am
   151   227   226   ar
   152   228   226   ar
   153   186   185    1
   154    28    26   ar
   155    42    36   am
   156   188   185    1
   157   188   189    1
   158    27    25   ar
   159    37    36    2
   160   198   199   ar
   161   198   200   ar
   162   164   163    2
   163   226   225    1
   164    36    35    1
   165   199   201   ar
   166    26    25   ar
   167   185   184    1
   168   200   202   ar
   169    25    24    1
   170   189   190    1
   171   191   190   ar
   172   168   167   ar
   173   163   162    1
   174    41    39   am
   175   190   192   ar
   176    24    21    1
   177   165   162    1
   178   165   166    1
   179   225   222    1
   180   201   203   ar
   181   202   203   ar
   182   176   178   ar
   183   176   175   ar
   184    39    40    2
   185    39    38    1
   186   167   169   ar
   187   167   166    1
   188   222   221    1
   189   222   223    1
   190    35    38    1
   191    35    34    1
   192   178   179   ar
   193   162   161    1
   194    23    22    2
   195   174   175    1
   196   174   171    1
   197    21    22    1
   198    21    20    1
   199   175   177   ar
   200     9     7   am
   201   179   177   ar
   202   179   181   ar
   203    19    17   ar
   204    19    18   ar
   205   177   180   ar
   206   223   224    2
   207    20    12   am
   208    17    15   ar
   209     7     8    2
   210     7     6    1
   211   181   183   ar
   212   170   171    1
   213   171   172    1
   214    18    16   ar
   215    12    13    2
   216    12    11    1
   217   173   172    2
   218   180   182   ar
   219     6     5    1
   220   183   182   ar
   221    15    16   ar
   222    15    14    1
   223    11    14    1
   224    11    10    1
   225     5     2    1
   226     2     1    1
   227     2     3    1
   228     4     3    2
