@<TRIPOS>MOLECULE
tmp/1w9dA08.pdb
 223 219 0 0 0
SMALL
GASTEIGER

@<TRIPOS>ATOM
      1  N         54.4540  120.5910   60.7290 N.3    37  GLN37      -0.1245
      2  CA        54.1910  121.9850   60.4330 C.3    37  GLN37       0.1566
      3  C         54.1640  122.9500   61.6040 C.2    37  GLN37       0.2260
      4  O         54.4480  124.1350   61.4190 O.2    37  GLN37      -0.2867
      5  CB        52.8950  122.0940   59.6370 C.3    37  GLN37       0.0367
      6  CG        52.9320  121.2870   58.3570 C.3    37  GLN37       0.0905
      7  CD        51.6430  121.3770   57.5730 C.2    37  GLN37       0.2608
      8  OE1       50.7380  120.5590   57.7470 O.2    37  GLN37      -0.2717
      9  NE2       51.5560  122.3660   56.6910 N.am   37  GLN37      -0.0878
     10  N         50.8340  112.0400   59.6390 N.3   139  HIS139     -0.1226
     11  CA        50.6970  113.1670   58.7400 C.3   139  HIS139      0.1752
     12  C         52.0090  113.3660   57.9750 C.2   139  HIS139      0.2596
     13  O         52.6370  114.4280   58.0430 O.2   139  HIS139     -0.2718
     14  CB        50.2750  114.4360   59.4860 C.3   139  HIS139      0.0759
     15  CG        49.6020  115.4570   58.6180 C.ar  139  HIS139      0.0818
     16  ND1       48.2920  115.8430   58.8080 N.ar  139  HIS139     -0.2268
     17  CD2       50.0650  116.1990   57.5820 C.ar  139  HIS139      0.1154
     18  CE1       47.9780  116.7800   57.9310 C.ar  139  HIS139      0.1986
     19  NE2       49.0350  117.0140   57.1750 N.ar  139  HIS139     -0.2212
     20  N         52.4530  112.2800   57.3370 N.am  140  TRP140     -0.1976
     21  CA        53.6400  112.2460   56.4700 C.3   140  TRP140      0.1640
     22  C         55.0340  112.2540   57.0800 C.2   140  TRP140      0.2290
     23  O         56.0170  112.0080   56.3740 O.2   140  TRP140     -0.2864
     24  CB        53.5780  113.3800   55.4460 C.3   140  TRP140      0.0576
     25  CG        52.2990  113.4830   54.6730 C.ar  140  TRP140      0.0006
     26  CD1       51.2890  112.5660   54.6070 C.ar  140  TRP140      0.0946
     27  CD2       51.9080  114.5760   53.8410 C.ar  140  TRP140      0.0152
     28  NE1       50.2910  113.0260   53.7770 N.ar  140  TRP140     -0.2442
     29  CE2       50.6470  114.2560   53.2960 C.ar  140  TRP140      0.0810
     30  CE3       52.5060  115.7950   53.5010 C.ar  140  TRP140      0.0012
     31  CZ2       49.9710  115.1160   52.4260 C.ar  140  TRP140      0.0191
     32  CZ3       51.8350  116.6480   52.6360 C.ar  140  TRP140      0.0001
     33  CH2       50.5780  116.3030   52.1080 C.ar  140  TRP140      0.0015
     34  N         47.1790  110.6930   56.5930 N.3   184  ASN184     -0.1225
     35  CA        46.6930  111.9200   55.9810 C.3   184  ASN184      0.1785
     36  C         46.7740  111.8570   54.4610 C.2   184  ASN184      0.2597
     37  O         47.7850  111.4180   53.9090 O.2   184  ASN184     -0.2718
     38  CB        47.5050  113.1190   56.4600 C.3   184  ASN184      0.1169
     39  CG        47.0100  114.4120   55.8620 C.2   184  ASN184      0.2627
     40  OD1       45.8650  114.7980   56.0760 O.2   184  ASN184     -0.2716
     41  ND2       47.8580  115.0730   55.0820 N.am  184  ASN184     -0.0877
     42  N         45.7080  112.3250   53.8060 N.am  185  GLN185     -0.1979
     43  CA        45.5870  112.3810   52.3430 C.3   185  GLN185      0.1601
     44  C         46.3050  111.2420   51.6360 C.2   185  GLN185      0.2287
     45  O         47.4110  111.4120   51.1210 O.2   185  GLN185     -0.2864
     46  CB        46.0840  113.7340   51.8250 C.3   185  GLN185      0.0394
     47  CG        45.3480  114.9140   52.4520 C.3   185  GLN185      0.0908
     48  CD        45.6810  116.2590   51.8190 C.2   185  GLN185      0.2608
     49  OE1       45.0270  117.2590   52.1070 O.2   185  GLN185     -0.2717
     50  NE2       46.6910  116.2880   50.9540 N.am  185  GLN185     -0.0878
     51  N         46.2700  109.9330   48.8020 N.3   187  TYR187     -0.1227
     52  CA        46.7840  110.1940   47.4630 C.3   187  TYR187      0.1736
     53  C         48.1230  110.9310   47.3940 C.2   187  TYR187      0.2596
     54  O         48.9150  110.7010   46.4820 O.2   187  TYR187     -0.2718
     55  CB        45.7250  110.9950   46.6910 C.3   187  TYR187      0.0548
     56  CG        46.0950  111.3930   45.2800 C.ar  187  TYR187     -0.0200
     57  CD1       45.7280  110.5960   44.2010 C.ar  187  TYR187     -0.0009
     58  CD2       46.7780  112.5840   45.0230 C.ar  187  TYR187     -0.0009
     59  CE1       46.0270  110.9730   42.8970 C.ar  187  TYR187      0.0417
     60  CE2       47.0840  112.9700   43.7260 C.ar  187  TYR187      0.0417
     61  CZ        46.7020  112.1600   42.6690 C.ar  187  TYR187      0.1957
     62  OH        46.9770  112.5420   41.3770 O.3   187  TYR187     -0.2866
     63  N         48.3890  111.7700   48.3900 N.am  188  SER188     -0.1952
     64  CA        49.5710  112.6240   48.4050 C.3   188  SER188      0.1924
     65  C         50.9700  112.0260   48.4110 C.2   188  SER188      0.2314
     66  O         51.7770  112.3500   47.5370 O.2   188  SER188     -0.2863
     67  CB        49.4380  113.6620   49.5150 C.3   188  SER188      0.2116
     68  OG        48.2300  114.3910   49.3710 O.3   188  SER188     -0.2180
     69  N         53.1620  112.6540   45.1720 N.3   192  ARG192     -0.1245
     70  CA        54.1200  113.7300   45.3940 C.3   192  ARG192      0.1563
     71  C         55.4470  113.2700   45.9770 C.2   192  ARG192      0.2260
     72  O         56.4910  113.8470   45.6730 O.2   192  ARG192     -0.2867
     73  CB        53.5090  114.8010   46.2920 C.3   192  ARG192      0.0307
     74  CG        52.1960  115.3660   45.7630 C.3   192  ARG192      0.0489
     75  CD        51.5890  116.3550   46.7380 C.3   192  ARG192      0.2205
     76  NE        52.4370  117.5320   46.9100 N.pl3 192  ARG192     -0.0865
     77  CZ        52.5100  118.5400   46.0460 C.cat 192  ARG192      0.5346
     78  NH1       51.7820  118.5320   44.9360 N.pl3 192  ARG192      0.1354
     79  NH2       53.3190  119.5610   46.2880 N.pl3 192  ARG192      0.1354
     80  N         42.2010  113.1660   50.3640 N.3   255  ILE255     -0.1245
     81  CA        42.2250  114.5070   49.8110 C.3   255  ILE255      0.1561
     82  C         41.1850  114.3530   48.7030 C.2   255  ILE255      0.2260
     83  O         41.2100  113.3850   47.9280 O.2   255  ILE255     -0.2867
     84  CB        43.5930  114.9470   49.2200 C.3   255  ILE255      0.0252
     85  CG1       43.4230  116.2640   48.4420 C.3   255  ILE255      0.0019
     86  CG2       44.2000  113.8650   48.3400 C.3   255  ILE255      0.0019
     87  CD1       42.9310  117.4410   49.2800 C.3   255  ILE255      0.0001
     88  N         38.7450  116.2430   45.6300 N.3   257  ARG257     -0.1245
     89  CA        38.6190  117.3210   44.6630 C.3   257  ARG257      0.1563
     90  C         37.4160  116.9070   43.8550 C.2   257  ARG257      0.2260
     91  O         37.0360  115.7290   43.8540 O.2   257  ARG257     -0.2867
     92  CB        39.7880  117.3590   43.6710 C.3   257  ARG257      0.0307
     93  CG        41.1350  117.7370   44.2180 C.3   257  ARG257      0.0489
     94  CD        42.1600  117.7400   43.0950 C.3   257  ARG257      0.2205
     95  NE        43.5220  117.8110   43.6140 N.pl3 257  ARG257     -0.0865
     96  CZ        44.6140  117.5410   42.9050 C.cat 257  ARG257      0.5346
     97  NH1       44.5200  117.1890   41.6300 N.pl3 257  ARG257      0.1354
     98  NH2       45.8020  117.5660   43.4940 N.pl3 257  ARG257      0.1354
     99  N         41.7070  109.3950   41.1080 N.3   280  PHE280     -0.1241
    100  CA        42.0100  110.2690   42.2330 C.3   280  PHE280      0.1605
    101  C         41.3180  109.7970   43.5060 C.2   280  PHE280      0.2264
    102  O         41.9570  109.6530   44.5460 O.2   280  PHE280     -0.2867
    103  CB        41.5990  111.7070   41.8940 C.3   280  PHE280      0.0534
    104  CG        42.1280  112.7350   42.8520 C.ar  280  PHE280     -0.0203
    105  CD1       43.3970  113.2730   42.6760 C.ar  280  PHE280     -0.0042
    106  CD2       41.3650  113.1540   43.9350 C.ar  280  PHE280     -0.0042
    107  CE1       43.8990  114.2130   43.5700 C.ar  280  PHE280     -0.0003
    108  CE2       41.8590  114.0960   44.8350 C.ar  280  PHE280     -0.0003
    109  CZ        43.1280  114.6240   44.6510 C.ar  280  PHE280     -0.0000
    110  N         39.7590  121.2140   49.0170 N.3   328  TYR328     -0.1227
    111  CA        40.2920  122.5360   48.7280 C.3   328  TYR328      0.1736
    112  C         39.8070  123.1110   47.4110 C.2   328  TYR328      0.2595
    113  O         39.3570  124.2560   47.3670 O.2   328  TYR328     -0.2718
    114  CB        41.8200  122.5230   48.7350 C.3   328  TYR328      0.0548
    115  CG        42.4060  122.3670   50.1090 C.ar  328  TYR328     -0.0200
    116  CD1       42.5740  123.4710   50.9360 C.ar  328  TYR328     -0.0009
    117  CD2       42.7990  121.1180   50.5830 C.ar  328  TYR328     -0.0009
    118  CE1       43.1210  123.3440   52.1990 C.ar  328  TYR328      0.0417
    119  CE2       43.3490  120.9740   51.8490 C.ar  328  TYR328      0.0417
    120  CZ        43.5080  122.0950   52.6510 C.ar  328  TYR328      0.1957
    121  OH        44.0700  121.9810   53.8970 O.3   328  TYR328     -0.2866
    122  N         39.8840  122.3230   46.3420 N.am  329  PHE329     -0.1976
    123  CA        39.4780  122.8240   45.0420 C.3   329  PHE329      0.1639
    124  C         39.0070  121.7630   44.0590 C.2   329  PHE329      0.2290
    125  O         39.0450  120.5580   44.3430 O.2   329  PHE329     -0.2864
    126  CB        40.5990  123.6790   44.4230 C.3   329  PHE329      0.0560
    127  CG        41.9280  122.9750   44.3170 C.ar  329  PHE329     -0.0200
    128  CD1       42.1490  122.0070   43.3410 C.ar  329  PHE329     -0.0042
    129  CD2       42.9670  123.2980   45.1830 C.ar  329  PHE329     -0.0042
    130  CE1       43.3840  121.3740   43.2270 C.ar  329  PHE329     -0.0003
    131  CE2       44.2050  122.6720   45.0770 C.ar  329  PHE329     -0.0003
    132  CZ        44.4130  121.7090   44.0980 C.ar  329  PHE329     -0.0000
    133  N         42.5310  131.1290   44.2280 N.3   369  PHE369     -0.1227
    134  CA        42.8510  130.3190   45.3980 C.3   369  PHE369      0.1736
    135  C         44.3150  130.5240   45.7840 C.2   369  PHE369      0.2595
    136  O         44.6300  130.7190   46.9550 O.2   369  PHE369     -0.2718
    137  CB        42.5800  128.8380   45.1190 C.3   369  PHE369      0.0547
    138  CG        42.8960  127.9330   46.2770 C.ar  369  PHE369     -0.0202
    139  CD1       42.0540  127.8750   47.3800 C.ar  369  PHE369     -0.0042
    140  CD2       44.0410  127.1440   46.2670 C.ar  369  PHE369     -0.0042
    141  CE1       42.3470  127.0480   48.4590 C.ar  369  PHE369     -0.0003
    142  CE2       44.3440  126.3120   47.3400 C.ar  369  PHE369     -0.0003
    143  CZ        43.4920  126.2650   48.4400 C.ar  369  PHE369     -0.0000
    144  N         45.2040  130.4700   44.7960 N.am  370  GLU370     -0.1979
    145  CA        46.6300  130.6590   45.0380 C.3   370  GLU370      0.1602
    146  C         47.3240  131.2250   43.8070 C.2   370  GLU370      0.2287
    147  O         47.2320  130.6660   42.7140 O.2   370  GLU370     -0.2864
    148  CB        47.2970  129.3410   45.4470 C.3   370  GLU370      0.0415
    149  CG        48.7960  129.4710   45.7130 C.3   370  GLU370      0.1163
    150  CD        49.4470  128.1670   46.1400 C.2   370  GLU370      0.3649
    151  OE1       49.1470  127.1120   45.5400 O.co2 370  GLU370     -0.2457
    152  OE2       50.2670  128.2000   47.0810 O.co2 370  GLU370     -0.2457
    153  N         45.9470  128.7590   40.9020 N.3   380  ILE380     -0.1245
    154  CA        44.8880  127.8440   41.3070 C.3   380  ILE380      0.1561
    155  C         43.6600  128.6780   41.6570 C.2   380  ILE380      0.2260
    156  O         43.7810  129.7640   42.2240 O.2   380  ILE380     -0.2867
    157  CB        45.3030  126.9970   42.5280 C.3   380  ILE380      0.0252
    158  CG1       46.5530  126.1790   42.1920 C.3   380  ILE380      0.0019
    159  CG2       44.1650  126.0620   42.9440 C.3   380  ILE380      0.0019
    160  CD1       47.0750  125.3510   43.3450 C.3   380  ILE380      0.0001
    161  N         39.8110  119.0940   56.6440 N.3   407  GLU407     -0.1245
    162  CA        40.6180  120.2220   56.1670 C.3   407  GLU407      0.1567
    163  C         39.8590  120.9690   55.0840 C.2   407  GLU407      0.2260
    164  O         39.2440  120.3520   54.2180 O.2   407  GLU407     -0.2867
    165  CB        41.9620  119.7860   55.5690 C.3   407  GLU407      0.0388
    166  CG        43.0200  119.3630   56.5700 C.3   407  GLU407      0.1160
    167  CD        44.3550  119.0380   55.9250 C.2   407  GLU407      0.3649
    168  OE1       44.7110  119.6700   54.9090 O.co2 407  GLU407     -0.2457
    169  OE2       45.0600  118.1530   56.4490 O.co2 407  GLU407     -0.2457
    170  N         41.4260  124.4070   57.7880 N.3   455  TRP455     -0.1241
    171  CA        42.8650  124.2090   57.7970 C.3   455  TRP455      0.1605
    172  C         43.7070  125.3220   58.3960 C.2   455  TRP455      0.2264
    173  O         43.5810  126.4930   58.0520 O.2   455  TRP455     -0.2867
    174  CB        43.4090  123.8390   56.4180 C.3   455  TRP455      0.0550
    175  CG        44.9060  123.6770   56.4480 C.ar  455  TRP455      0.0003
    176  CD1       45.8240  124.4530   55.8060 C.ar  455  TRP455      0.0946
    177  CD2       45.6560  122.7340   57.2310 C.ar  455  TRP455      0.0152
    178  NE1       47.0980  124.0660   56.1470 N.ar  455  TRP455     -0.2442
    179  CE2       47.0240  123.0120   57.0190 C.ar  455  TRP455      0.0810
    180  CE3       45.3040  121.6860   58.0920 C.ar  455  TRP455      0.0012
    181  CZ2       48.0450  122.2790   57.6370 C.ar  455  TRP455      0.0191
    182  CZ3       46.3190  120.9550   58.7060 C.ar  455  TRP455      0.0001
    183  CH2       47.6730  121.2570   58.4740 C.ar  455  TRP455      0.0015
    184  N         54.3490  125.3980   55.4980 N.3   462  GLU462     -0.1231
    185  CA        53.4790  124.7270   54.5440 C.3   462  GLU462      0.1699
    186  C         54.3580  123.8460   53.6760 C.2   462  GLU462      0.2592
    187  O         55.3520  124.3150   53.1210 O.2   462  GLU462     -0.2718
    188  CB        52.7290  125.7520   53.6870 C.3   462  GLU462      0.0402
    189  CG        52.0720  125.2010   52.4140 C.3   462  GLU462      0.1161
    190  CD        50.9710  124.1830   52.6700 C.2   462  GLU462      0.3649
    191  OE1       50.5200  124.0410   53.8270 O.co2 462  GLU462     -0.2457
    192  OE2       50.5480  123.5250   51.6920 O.co2 462  GLU462     -0.2457
    193  N         54.0070  122.5650   53.5860 N.am  463  PHE463     -0.1976
    194  CA        54.7690  121.6180   52.7810 C.3   463  PHE463      0.1639
    195  C         55.0050  122.1860   51.3840 C.2   463  PHE463      0.2290
    196  O         54.0740  122.6750   50.7460 O.2   463  PHE463     -0.2864
    197  CB        54.0280  120.2790   52.6800 C.3   463  PHE463      0.0560
    198  CG        53.9010  119.5500   53.9910 C.ar  463  PHE463     -0.0200
    199  CD1       55.0180  118.9850   54.5960 C.ar  463  PHE463     -0.0042
    200  CD2       52.6610  119.4070   54.6080 C.ar  463  PHE463     -0.0042
    201  CE1       54.9100  118.2870   55.7930 C.ar  463  PHE463     -0.0003
    202  CE2       52.5390  118.7080   55.8090 C.ar  463  PHE463     -0.0003
    203  CZ        53.6650  118.1450   56.4040 C.ar  463  PHE463     -0.0000
    204  N         56.1200  124.9020   50.4020 N.3   465  LYS465     -0.1245
    205  CA        56.0950  126.3580   50.3140 C.3   465  LYS465      0.1561
    206  C         56.8370  127.1230   51.4000 C.2   465  LYS465      0.2260
    207  O         56.9030  128.3500   51.3480 O.2   465  LYS465     -0.2867
    208  CB        54.6420  126.8430   50.2620 C.3   465  LYS465      0.0271
    209  CG        53.7990  126.1920   49.1750 C.3   465  LYS465      0.0035
    210  CD        54.2970  126.5550   47.7860 C.3   465  LYS465      0.0206
    211  CE        53.5480  125.7800   46.7090 C.3   465  LYS465      0.1093
    212  NZ        52.0750  125.9920   46.7740 N.3   465  LYS465     -0.1314
    213  N         48.2150  130.0460   55.9970 N.3   471  PHE471     -0.1241
    214  CA        46.9030  129.3980   55.9600 C.3   471  PHE471      0.1605
    215  C         46.1280  129.5910   57.2570 C.2   471  PHE471      0.2264
    216  O         44.9650  129.2030   57.3510 O.2   471  PHE471     -0.2867
    217  CB        47.0610  127.8850   55.7630 C.3   471  PHE471      0.0534
    218  CG        47.0660  127.4380   54.3310 C.ar  471  PHE471     -0.0203
    219  CD1       45.8710  127.1750   53.6690 C.ar  471  PHE471     -0.0042
    220  CD2       48.2630  127.2220   53.6620 C.ar  471  PHE471     -0.0042
    221  CE1       45.8680  126.6980   52.3590 C.ar  471  PHE471     -0.0003
    222  CE2       48.2730  126.7450   52.3500 C.ar  471  PHE471     -0.0003
    223  CZ        47.0730  126.4830   51.6990 C.ar  471  PHE471     -0.0000
@<TRIPOS>BOND
     1   153   154    1
     2    99   100    1
     3   154   155    1
     4   154   157    1
     5    62    61    1
     6    97    96    1
     7   155   156    2
     8   103   100    1
     9   103   104    1
    10   158   157    1
    11   158   160    1
    12   100   101    1
    13   157   159    1
    14    61    59   ar
    15    61    60   ar
    16   105   104   ar
    17   105   107   ar
    18   147   146    2
    19   104   106   ar
    20    59    57   ar
    21    96    98    1
    22    96    95    2
    23    94    95    1
    24    94    93    1
    25   130   128   ar
    26   130   132   ar
    27   128   127   ar
    28   101   102    2
    29   107   109   ar
    30    92    93    1
    31    92    89    1
    32    60    58   ar
    33   146   145    1
    34    91    90    2
    35    90    89    1
    36   106   108   ar
    37   124   125    2
    38   124   123    1
    39   132   131   ar
    40    57    56   ar
    41   133   134    1
    42   127   126    1
    43   127   129   ar
    44   126   123    1
    45   109   108   ar
    46    89    88    1
    47   144   145    1
    48   144   135   am
    49    78    77    1
    50    58    56   ar
    51   145   148    1
    52   123   122    1
    53   131   129   ar
    54   137   134    1
    55   137   138    1
    56    69    70    1
    57    56    55    1
    58    70    71    1
    59    70    73    1
    60   134   135    1
    61   148   149    1
    62   151   150   ar
    63    72    71    2
    64   149   150    1
    65    74    73    1
    66    74    75    1
    67   135   136    2
    68    77    79    1
    69    77    76    2
    70   150   152   ar
    71   140   138   ar
    72   140   142   ar
    73   138   139   ar
    74   122   112   am
    75    54    53    2
    76    55    52    1
    77   211   212    1
    78   211   210    1
    79    75    76    1
    80   142   143   ar
    81   113   112    2
    82   139   141   ar
    83    53    52    1
    84    53    63   am
    85   112   111    1
    86    52    51    1
    87    66    65    2
    88   210   209    1
    89    83    82    2
    90    86    84    1
    91    63    64    1
    92    64    65    1
    93    64    67    1
    94   143   141   ar
    95    85    84    1
    96    85    87    1
    97    82    81    1
    98   111   114    1
    99   111   110    1
   100   114   115    1
   101   209   208    1
   102    84    81    1
   103    68    67    1
   104    81    80    1
   105   115   117   ar
   106   115   116   ar
   107   208   205    1
   108   205   204    1
   109   205   206    1
   110   117   119   ar
   111   196   195    2
   112   116   118   ar
   113    50    48   am
   114    45    44    2
   115   207   206    2
   116   195   194    1
   117    44    43    1
   118   192   190   ar
   119   223   222   ar
   120   223   221   ar
   121    48    49    2
   122    48    47    1
   123    46    43    1
   124    46    47    1
   125   119   120   ar
   126    33    31   ar
   127    33    32   ar
   128   118   120   ar
   129    43    42    1
   130   222   220   ar
   131   221   219   ar
   132   189   190    1
   133   189   188    1
   134    31    29   ar
   135    32    30   ar
   136   120   121    1
   137   190   191   ar
   138   197   194    1
   139   197   198    1
   140   194   193    1
   141   187   186    2
   142    29    28   ar
   143    29    27   ar
   144    30    27   ar
   145   193   186   am
   146   220   218   ar
   147   219   218   ar
   148   186   185    1
   149   188   185    1
   150    28    26   ar
   151    42    36   am
   152    27    25   ar
   153    37    36    2
   154   198   199   ar
   155   198   200   ar
   156   164   163    2
   157   218   217    1
   158    36    35    1
   159   185   184    1
   160   199   201   ar
   161    26    25   ar
   162   200   202   ar
   163    25    24    1
   164   168   167   ar
   165    41    39   am
   166   163   162    1
   167    24    21    1
   168   165   162    1
   169   165   166    1
   170   217   214    1
   171   201   203   ar
   172   176   178   ar
   173   176   175   ar
   174   202   203   ar
   175    39    40    2
   176    39    38    1
   177   167   169   ar
   178   167   166    1
   179   214   213    1
   180   214   215    1
   181    35    38    1
   182    35    34    1
   183   178   179   ar
   184   162   161    1
   185    23    22    2
   186   174   175    1
   187   174   171    1
   188   175   177   ar
   189    21    22    1
   190    21    20    1
   191     9     7   am
   192   179   177   ar
   193   179   181   ar
   194    19    17   ar
   195    19    18   ar
   196   177   180   ar
   197   215   216    2
   198    20    12   am
   199     7     8    2
   200     7     6    1
   201    17    15   ar
   202   181   183   ar
   203   170   171    1
   204   171   172    1
   205    18    16   ar
   206    12    13    2
   207    12    11    1
   208   173   172    2
   209   180   182   ar
   210     6     5    1
   211   183   182   ar
   212    15    16   ar
   213    15    14    1
   214    11    14    1
   215    11    10    1
   216     5     2    1
   217     2     1    1
   218     2     3    1
   219     4     3    2
