@<TRIPOS>MOLECULE
tmp/1w9eA00.pdb
 112 108 0 0 0
SMALL
GASTEIGER

@<TRIPOS>ATOM
      1  N          6.7700   37.9970   42.1840 N.3    14  GLY14      -0.1210
      2  CA         8.0350   38.6330   41.8470 C.3    14  GLY14       0.1956
      3  C          9.2660   37.9090   42.3930 C.2    14  GLY14       0.2612
      4  O         10.3760   38.4430   42.3690 O.2    14  GLY14      -0.2717
      5  N          9.0800   36.6730   42.8470 N.am   15  LYS15      -0.1965
      6  CA        10.1520   35.9290   43.5360 C.3    15  LYS15       0.1728
      7  C         10.8720   34.9280   42.6130 C.2    15  LYS15       0.2616
      8  O         10.3080   34.4130   41.6580 O.2    15  LYS15      -0.2715
      9  CB         9.6000   35.2490   44.7860 C.3    15  LYS15       0.0311
     10  CG         9.0750   36.2730   45.7820 C.3    15  LYS15       0.0038
     11  CD         8.6440   35.6830   47.1040 C.3    15  LYS15       0.0206
     12  CE         8.1550   36.7870   48.0230 C.3    15  LYS15       0.1093
     13  NZ         9.2810   37.6140   48.5930 N.3    15  LYS15      -0.1314
     14  N         12.1440   34.6970   42.9090 N.am   16  ILE16      -0.1963
     15  CA        12.9750   33.7970   42.1210 C.3    16  ILE16       0.1727
     16  C         13.4790   32.5740   42.9040 C.2    16  ILE16       0.2617
     17  O         14.0550   31.7000   42.2790 O.2    16  ILE16      -0.2715
     18  CB        14.1660   34.5410   41.4890 C.3    16  ILE16       0.0290
     19  CG1       15.0040   35.2220   42.5950 C.3    16  ILE16       0.0022
     20  CG2       13.6150   35.5100   40.4440 C.3    16  ILE16       0.0023
     21  CD1       16.3690   35.6050   42.2360 C.3    16  ILE16       0.0001
     22  N         13.2840   32.5330   44.2220 N.am   17  GLY17      -0.1940
     23  CA        13.6550   31.3730   45.0360 C.3    17  GLY17       0.2014
     24  C         14.9680   31.4390   45.8030 C.2    17  GLY17       0.2639
     25  O         15.6510   30.4230   45.9390 O.2    17  GLY17      -0.2714
     26  N         15.3290   32.6210   46.3240 N.am   18  LEU18      -0.1963
     27  CA        16.6260   32.8390   46.9320 C.3    18  LEU18       0.1728
     28  C         16.4790   33.5140   48.3050 C.2    18  LEU18       0.2616
     29  O         15.6050   34.3500   48.4730 O.2    18  LEU18      -0.2715
     30  CB        17.4290   33.7930   46.0180 C.3    18  LEU18       0.0311
     31  CG        18.8420   33.5240   45.5840 C.3    18  LEU18       0.0022
     32  CD1       19.1460   32.0810   45.3190 C.3    18  LEU18       0.0001
     33  CD2       19.1660   34.4260   44.3830 C.3    18  LEU18       0.0001
     34  N         17.3570   33.1950   49.2310 N.am   19  ARG19      -0.1977
     35  CA        17.6550   34.1050   50.3620 C.3    19  ARG19       0.1597
     36  C         19.1470   34.3600   50.3420 C.2    19  ARG19       0.2287
     37  O         19.9270   33.4690   50.0400 O.2    19  ARG19      -0.2864
     38  CB        17.2380   33.4870   51.7030 C.3    19  ARG19       0.0334
     39  CG        17.4730   34.3820   52.9270 C.3    19  ARG19       0.0492
     40  CD        17.1220   33.7260   54.2820 C.3    19  ARG19       0.2205
     41  NE        15.8020   33.0930   54.2430 N.pl3  19  ARG19      -0.0865
     42  CZ        15.3840   32.1570   55.0900 C.cat  19  ARG19       0.5346
     43  NH1       16.1880   31.7380   56.0650 N.pl3  19  ARG19       0.1354
     44  NH2       14.1610   31.6410   54.9600 N.pl3  19  ARG19       0.1354
     45  N         20.1940   30.4340   50.8350 N.3    31  LEU31      -0.1231
     46  CA        19.2160   29.3600   50.5830 C.3    31  LEU31       0.1693
     47  C         18.6630   29.4550   49.1960 C.2    31  LEU31       0.2592
     48  O         18.4330   30.5660   48.6780 O.2    31  LEU31      -0.2718
     49  CB        18.0540   29.4560   51.5490 C.3    31  LEU31       0.0284
     50  CG        18.4310   29.2390   53.0010 C.3    31  LEU31       0.0019
     51  CD1       17.3950   29.9170   53.8470 C.3    31  LEU31       0.0001
     52  CD2       18.5420   27.7560   53.2960 C.3    31  LEU31       0.0001
     53  N         18.4850   28.3000   48.5680 N.am   32  VAL32      -0.1966
     54  CA        17.8640   28.2360   47.2510 C.3    32  VAL32       0.1727
     55  C         16.6680   27.3030   47.3750 C.2    32  VAL32       0.2616
     56  O         16.8050   26.1660   47.8130 O.2    32  VAL32      -0.2715
     57  CB        18.8540   27.7090   46.2110 C.3    32  VAL32       0.0290
     58  CG1       18.1930   27.5700   44.8210 C.3    32  VAL32       0.0023
     59  CG2       20.1400   28.5240   46.1910 C.3    32  VAL32       0.0023
     60  N         15.5010   27.7870   47.0110 N.am   33  GLN33      -0.1977
     61  CA        14.2610   27.0280   47.1050 C.3    33  GLN33       0.1601
     62  C         14.2140   25.9720   46.0140 C.2    33  GLN33       0.2287
     63  O         14.5130   26.2300   44.8520 O.2    33  GLN33      -0.2864
     64  CB        13.0900   27.9690   46.9090 C.3    33  GLN33       0.0394
     65  CG        12.8330   28.8560   48.1040 C.3    33  GLN33       0.0908
     66  CD        11.6160   28.4380   48.8820 C.2    33  GLN33       0.2608
     67  OE1       10.7180   29.2580   49.1560 O.2    33  GLN33      -0.2717
     68  NE2       11.5600   27.1530   49.2300 N.am   33  GLN33      -0.0878
     69  N         17.5430   41.8110   49.1950 N.3    66  HIS66      -0.1226
     70  CA        16.1850   41.3010   49.0410 C.3    66  HIS66       0.1752
     71  C         15.2210   42.3520   48.5490 C.2    66  HIS66       0.2595
     72  O         14.3660   42.0900   47.7190 O.2    66  HIS66      -0.2718
     73  CB        15.7110   40.7340   50.3690 C.3    66  HIS66       0.0759
     74  CG        16.4590   39.5210   50.8080 C.ar   66  HIS66       0.0818
     75  ND1       16.5070   39.1200   52.1240 N.ar   66  HIS66      -0.2268
     76  CD2       17.1880   38.6130   50.1060 C.ar   66  HIS66       0.1154
     77  CE1       17.2310   38.0120   52.2090 C.ar   66  HIS66       0.1986
     78  NE2       17.6380   37.6760   50.9970 N.ar   66  HIS66      -0.2212
     79  N         15.3520   43.5570   49.0810 N.am   67  LYS67      -0.1980
     80  CA        14.5330   44.6620   48.6370 C.3    67  LYS67       0.1596
     81  C         14.7560   44.9660   47.1460 C.2    67  LYS67       0.2287
     82  O         13.8220   45.2490   46.3850 O.2    67  LYS67      -0.2864
     83  CB        14.8070   45.9060   49.4900 C.3    67  LYS67       0.0298
     84  CG        13.8760   47.0800   49.1630 C.3    67  LYS67       0.0038
     85  CD        13.8500   48.1020   50.3500 C.3    67  LYS67       0.0206
     86  CE        12.4630   48.1840   51.0300 C.3    67  LYS67       0.1093
     87  NZ        12.3540   49.1320   52.2120 N.3    67  LYS67      -0.1314
     88  N         15.6630   42.8100   44.8780 N.3    69  LEU69      -0.1231
     89  CA        14.9590   41.7760   44.1410 C.3    69  LEU69       0.1693
     90  C         13.4560   42.0440   44.0870 C.2    69  LEU69       0.2591
     91  O         12.8410   41.9510   43.0120 O.2    69  LEU69      -0.2718
     92  CB        15.2070   40.4120   44.7670 C.3    69  LEU69       0.0284
     93  CG        16.6210   39.8550   44.7160 C.3    69  LEU69       0.0019
     94  CD1       16.7270   38.5640   45.5060 C.3    69  LEU69       0.0001
     95  CD2       17.0720   39.5950   43.2700 C.3    69  LEU69       0.0001
     96  N         12.8780   42.4030   45.2270 N.am   70  LYS70      -0.1980
     97  CA        11.4420   42.6670   45.3460 C.3    70  LYS70       0.1596
     98  C         10.9960   43.8010   44.4380 C.2    70  LYS70       0.2287
     99  O          9.8880   43.7700   43.8590 O.2    70  LYS70      -0.2864
    100  CB        11.0710   42.9920   46.7900 C.3    70  LYS70       0.0298
    101  CG         9.5730   43.1750   47.0170 C.3    70  LYS70       0.0038
    102  CD         9.1720   43.2340   48.4790 C.3    70  LYS70       0.0206
    103  CE         7.6660   43.5360   48.6310 C.3    70  LYS70       0.1093
    104  NZ         7.0170   42.6060   49.6080 N.3    70  LYS70      -0.1314
    105  N         15.0790   38.8890   36.0780 N.3    77  ILE77      -0.1245
    106  CA        16.1450   39.4610   36.9010 C.3    77  ILE77       0.1561
    107  C         17.4720   38.8780   36.4270 C.2    77  ILE77       0.2260
    108  O         17.6130   37.6730   36.2700 O.2    77  ILE77      -0.2867
    109  CB        15.9290   39.1550   38.3900 C.3    77  ILE77       0.0252
    110  CG1       14.6130   39.7810   38.8970 C.3    77  ILE77       0.0019
    111  CG2       17.1310   39.6770   39.1750 C.3    77  ILE77       0.0019
    112  CD1       14.1900   39.5100   40.3980 C.3    77  ILE77       0.0001
@<TRIPOS>BOND
     1   105   106    1
     2   108   107    2
     3   107   106    1
     4   106   109    1
     5   109   110    1
     6   109   111    1
     7   110   112    1
     8    20    18    1
     9    18    15    1
    10    18    19    1
    11     8     7    2
    12     2     1    1
    13     2     3    1
    14    15    16    1
    15    15    14    1
    16    21    19    1
    17    17    16    2
    18     4     3    2
    19     3     5   am
    20     7    14   am
    21     7     6    1
    22     5     6    1
    23    16    22   am
    24    91    90    2
    25    95    93    1
    26     6     9    1
    27    99    98    2
    28    90    89    1
    29    90    96   am
    30    89    92    1
    31    89    88    1
    32    22    23    1
    33    33    31    1
    34    98    97    1
    35    93    92    1
    36    93    94    1
    37     9    10    1
    38    58    57    1
    39    63    62    2
    40    23    24    1
    41    96    97    1
    42    32    31    1
    43    97   100    1
    44    31    30    1
    45    10    11    1
    46    24    25    2
    47    24    26   am
    48    62    61    1
    49    30    27    1
    50    59    57    1
    51    57    54    1
    52    26    27    1
    53    82    81    2
    54   100   101    1
    55    64    61    1
    56    64    65    1
    57    27    28    1
    58    60    61    1
    59    60    55   am
    60   101   102    1
    61    11    12    1
    62    81    80    1
    63    54    55    1
    64    54    53    1
    65    55    56    2
    66    72    71    2
    67    12    13    1
    68    65    66    1
    69    28    29    2
    70    28    34   am
    71   102   103    1
    72    71    70    1
    73    71    79   am
    74    53    47   am
    75   103   104    1
    76    80    79    1
    77    80    83    1
    78    48    47    2
    79    66    67    2
    80    66    68   am
    81    70    69    1
    82    70    73    1
    83    84    83    1
    84    84    85    1
    85    47    46    1
    86    34    35    1
    87    37    36    2
    88    76    74   ar
    89    76    78   ar
    90    36    35    1
    91    85    86    1
    92    35    38    1
    93    73    74    1
    94    46    45    1
    95    46    49    1
    96    74    75   ar
    97    78    77   ar
    98    86    87    1
    99    49    50    1
   100    38    39    1
   101    75    77   ar
   102    39    40    1
   103    50    52    1
   104    50    51    1
   105    41    40    1
   106    41    42    2
   107    44    42    1
   108    42    43    1
