@<TRIPOS>MOLECULE
tmp/1w9oA00.pdb
 129 125 0 0 0
SMALL
GASTEIGER

@<TRIPOS>ATOM
      1  N          2.8000   30.2800   40.9420 N.3    94  LYS94      -0.1231
      2  CA         2.3070   30.9900   39.7550 C.3    94  LYS94       0.1693
      3  C          3.3800   31.9900   39.2860 C.2    94  LYS94       0.2592
      4  O          4.0560   32.6050   40.1030 O.2    94  LYS94      -0.2718
      5  CB         1.0270   31.7640   40.0650 C.3    94  LYS94       0.0285
      6  CG        -0.2250   30.9270   40.2770 C.3    94  LYS94       0.0035
      7  CD        -1.3640   31.8240   40.7510 C.3    94  LYS94       0.0206
      8  CE        -2.6550   31.0660   40.9860 C.3    94  LYS94       0.1093
      9  NZ        -3.7510   31.9590   41.5240 N.3    94  LYS94      -0.1314
     10  N          3.5240   32.1580   37.9820 N.am   95  ASP95      -0.1974
     11  CA         4.4960   33.1050   37.4480 C.3    95  ASP95       0.1709
     12  C          3.8720   34.5070   37.4210 C.2    95  ASP95       0.2293
     13  O          2.9770   34.8030   38.2390 O.2    95  ASP95      -0.2864
     14  CB         5.0450   32.6400   36.0890 C.3    95  ASP95       0.1436
     15  CG         3.9810   32.4810   35.0410 C.2    95  ASP95       0.3671
     16  OD1        2.9160   33.1220   35.1430 O.co2  95  ASP95      -0.2456
     17  OD2        4.1290   31.7300   34.0580 O.co2  95  ASP95      -0.2456
     18  N          2.1710   35.9440   34.8780 N.3    97  THR97      -0.1203
     19  CA         0.8440   35.8050   34.2860 C.3    97  THR97       0.1994
     20  C         -0.2260   35.1460   35.2050 C.2    97  THR97       0.2618
     21  O         -1.4090   35.1470   34.8610 O.2    97  THR97      -0.2717
     22  CB         0.9300   35.0440   32.9230 C.3    97  THR97       0.1784
     23  OG1        1.5210   33.7420   33.0940 O.3    97  THR97      -0.2211
     24  CG2        1.8670   35.7530   31.9390 C.3    97  THR97       0.0376
     25  N          0.1730   34.6100   36.3620 N.am   98  GLY98      -0.1942
     26  CA        -0.7500   33.9370   37.2760 C.3    98  GLY98       0.2014
     27  C         -0.9950   32.4620   36.9470 C.2    98  GLY98       0.2639
     28  O         -1.9920   31.8790   37.3890 O.2    98  GLY98      -0.2714
     29  N         -0.0950   31.8640   36.1610 N.am   99  HIS99      -0.1959
     30  CA        -0.1850   30.4540   35.7790 C.3    99  HIS99       0.1787
     31  C          0.9400   29.6460   36.4270 C.2    99  HIS99       0.2620
     32  O          2.0710   30.1240   36.5020 O.2    99  HIS99      -0.2715
     33  CB        -0.0510   30.2960   34.2690 C.3    99  HIS99       0.0785
     34  CG        -1.2390   30.7650   33.4900 C.ar   99  HIS99       0.0821
     35  ND1       -1.1650   31.7890   32.5710 N.ar   99  HIS99      -0.2267
     36  CD2       -2.5190   30.3270   33.4600 C.ar   99  HIS99       0.1154
     37  CE1       -2.3530   31.9740   32.0240 C.ar   99  HIS99       0.1986
     38  NE2       -3.1910   31.0940   32.5420 N.ar   99  HIS99      -0.2212
     39  N          0.6210   28.4160   36.8500 N.am  100  VAL100     -0.1963
     40  CA         1.6100   27.4420   37.3460 C.3   100  VAL100      0.1727
     41  C          2.2360   26.6170   36.2260 C.2   100  VAL100      0.2617
     42  O          3.3830   26.2090   36.3310 O.2   100  VAL100     -0.2715
     43  CB         1.0230   26.4620   38.3940 C.3   100  VAL100      0.0290
     44  CG1        0.5240   27.2120   39.6080 C.3   100  VAL100      0.0023
     45  CG2       -0.0870   25.5600   37.7920 C.3   100  VAL100      0.0023
     46  N          1.4670   26.3310   35.1800 N.am  101  GLY101     -0.1940
     47  CA         2.0200   25.8050   33.9450 C.3   101  GLY101      0.2014
     48  C          1.6050   24.4210   33.5070 C.2   101  GLY101      0.2639
     49  O          2.4610   23.6360   33.0960 O.2   101  GLY101     -0.2714
     50  N          0.3080   24.1200   33.5650 N.am  102  PHE102     -0.1959
     51  CA        -0.2070   22.8690   33.0050 C.3   102  PHE102      0.1771
     52  C         -1.6000   23.0110   32.4030 C.2   102  PHE102      0.2619
     53  O         -2.3470   23.9080   32.7430 O.2   102  PHE102     -0.2715
     54  CB        -0.1660   21.7240   34.0340 C.3   102  PHE102      0.0574
     55  CG        -1.1430   21.8730   35.1870 C.ar  102  PHE102     -0.0200
     56  CD1       -0.7550   22.4810   36.3760 C.ar  102  PHE102     -0.0042
     57  CD2       -2.4170   21.3490   35.1020 C.ar  102  PHE102     -0.0042
     58  CE1       -1.6500   22.5950   37.4510 C.ar  102  PHE102     -0.0003
     59  CE2       -3.3130   21.4730   36.1690 C.ar  102  PHE102     -0.0003
     60  CZ        -2.9280   22.0980   37.3360 C.ar  102  PHE102     -0.0000
     61  N         -1.9070   22.1170   31.4690 N.am  103  ILE103     -0.1963
     62  CA        -3.2520   21.9970   30.8960 C.3   103  ILE103      0.1727
     63  C         -3.9510   20.7940   31.5300 C.2   103  ILE103      0.2616
     64  O         -3.3360   19.7450   31.7100 O.2   103  ILE103     -0.2715
     65  CB        -3.1840   21.7730   29.3550 C.3   103  ILE103      0.0290
     66  CG1       -2.1430   22.6800   28.6770 C.3   103  ILE103      0.0022
     67  CG2       -4.5480   21.9590   28.7190 C.3   103  ILE103      0.0023
     68  CD1       -2.3400   24.1330   28.9000 C.3   103  ILE103      0.0001
     69  N         -5.2370   20.9380   31.8470 N.am  104  PHE104     -0.1960
     70  CA        -6.0320   19.8170   32.3400 C.3   104  PHE104      0.1771
     71  C         -7.4050   19.7230   31.6700 C.2   104  PHE104      0.2619
     72  O         -7.9120   20.6920   31.1240 O.2   104  PHE104     -0.2715
     73  CB        -6.1410   19.8730   33.8690 C.3   104  PHE104      0.0574
     74  CG        -7.2570   20.7360   34.3960 C.ar  104  PHE104     -0.0200
     75  CD1       -8.5700   20.2750   34.4480 C.ar  104  PHE104     -0.0042
     76  CD2       -6.9850   21.9960   34.8870 C.ar  104  PHE104     -0.0042
     77  CE1       -9.5770   21.0740   34.9430 C.ar  104  PHE104     -0.0003
     78  CE2       -8.0040   22.7980   35.3960 C.ar  104  PHE104     -0.0003
     79  CZ        -9.2940   22.3340   35.4200 C.ar  104  PHE104     -0.0000
     80  N         -7.9640   18.5260   31.6880 N.am  105  LYS105     -0.1977
     81  CA        -9.3280   18.2820   31.2350 C.3   105  LYS105      0.1596
     82  C         -9.8800   17.0820   31.9900 C.2   105  LYS105      0.2287
     83  O         -9.2220   16.0440   32.0840 O.2   105  LYS105     -0.2864
     84  CB        -9.3590   18.0080   29.7220 C.3   105  LYS105      0.0298
     85  CG       -10.7580   17.8160   29.1180 C.3   105  LYS105      0.0038
     86  CD       -10.7190   17.8050   27.5770 C.3   105  LYS105      0.0206
     87  CE       -12.1000   17.5420   26.9560 C.3   105  LYS105      0.1093
     88  NZ       -12.0000   16.8830   25.6030 N.3   105  LYS105     -0.1314
     89  N         -3.0290   16.7990   31.3840 N.3   110  THR110     -0.1218
     90  CA        -2.7440   16.3410   30.0120 C.3   110  THR110      0.1862
     91  C         -1.4950   16.9620   29.3640 C.2   110  THR110      0.2287
     92  O         -0.9020   16.3400   28.4860 O.2   110  THR110     -0.2866
     93  CB        -3.9580   16.5840   29.0920 C.3   110  THR110      0.1770
     94  OG1       -4.2960   17.9810   29.0720 O.3   110  THR110     -0.2211
     95  CG2       -5.1990   15.9200   29.6550 C.3   110  THR110      0.0375
     96  N          3.5690   22.7490   30.5410 N.3   113  VAL113     -0.1245
     97  CA         4.0220   23.9120   29.7860 C.3   113  VAL113      0.1561
     98  C          5.5330   24.0970   30.0040 C.2   113  VAL113      0.2260
     99  O          6.0590   23.8220   31.0910 O.2   113  VAL113     -0.2867
    100  CB         3.2670   25.1970   30.2180 C.3   113  VAL113      0.0252
    101  CG1        3.7630   26.4130   29.4370 C.3   113  VAL113      0.0019
    102  CG2        1.7570   25.0430   30.0130 C.3   113  VAL113      0.0019
    103  N        -14.5530   20.9240   35.3540 N.3   142  ASP142     -0.1225
    104  CA       -13.3070   21.5990   35.0550 C.3   142  ASP142      0.1805
    105  C        -13.3400   23.0710   35.3980 C.2   142  ASP142      0.2598
    106  O        -12.3270   23.6060   35.8390 O.2   142  ASP142     -0.2718
    107  CB       -12.9460   21.4350   33.5820 C.3   142  ASP142      0.1424
    108  CG       -12.6750   19.9990   33.2010 C.2   142  ASP142      0.3668
    109  OD1      -12.3110   19.2060   34.0960 O.co2 142  ASP142     -0.2456
    110  OD2      -12.8030   19.5730   32.0330 O.co2 142  ASP142     -0.2456
    111  N        -14.4880   23.7280   35.2050 N.am  143  SER143     -0.1952
    112  CA       -14.6010   25.1680   35.4720 C.3   143  SER143      0.1924
    113  C        -14.4380   25.5220   36.9440 C.2   143  SER143      0.2314
    114  O        -13.8210   26.5300   37.2790 O.2   143  SER143     -0.2863
    115  CB       -15.9170   25.7550   34.9130 C.3   143  SER143      0.2116
    116  OG       -17.0720   25.0170   35.2930 O.3   143  SER143     -0.2180
    117  N        -10.7320   25.2480   37.7220 N.3   146  ALA146     -0.1245
    118  CA        -9.9950   26.3990   37.1760 C.3   146  ALA146      0.1562
    119  C        -10.2350   27.6570   37.9860 C.2   146  ALA146      0.2260
    120  O         -9.3600   28.5210   38.0510 O.2   146  ALA146     -0.2867
    121  CB       -10.3600   26.6340   35.7300 C.3   146  ALA146      0.0290
    122  N         -8.1700   27.4190   41.2210 N.3   149  LEU149     -0.1245
    123  CA        -6.7970   27.7500   40.8940 C.3   149  LEU149      0.1561
    124  C         -6.6050   29.2540   40.6880 C.2   149  LEU149      0.2260
    125  O         -5.5260   29.7720   40.9580 O.2   149  LEU149     -0.2867
    126  CB        -6.3610   26.9800   39.6370 C.3   149  LEU149      0.0270
    127  CG        -6.1920   25.4660   39.8230 C.3   149  LEU149      0.0019
    128  CD1       -6.5260   24.6890   38.5800 C.3   149  LEU149      0.0001
    129  CD2       -4.7730   25.1530   40.2290 C.3   149  LEU149      0.0001
@<TRIPOS>BOND
     1    88    87    1
     2    87    86    1
     3    86    85    1
     4    92    91    2
     5    66    68    1
     6    66    65    1
     7    67    65    1
     8    94    93    1
     9    93    95    1
    10    93    90    1
    11    85    84    1
    12    65    62    1
    13    91    90    1
    14   101   100    1
    15    84    81    1
    16    97    98    1
    17    97   100    1
    18    97    96    1
    19    98    99    2
    20    90    89    1
    21   102   100    1
    22    62    61    1
    23    62    63    1
    24    72    71    2
    25    81    80    1
    26    81    82    1
    27    61    52   am
    28    63    64    2
    29    63    69   am
    30    71    80   am
    31    71    70    1
    32    69    70    1
    33    24    22    1
    34    82    83    2
    35    37    38   ar
    36    37    35   ar
    37   110   108   ar
    38    70    73    1
    39    52    53    2
    40    52    51    1
    41    38    36   ar
    42    35    34   ar
    43    22    23    1
    44    22    19    1
    45    51    50    1
    46    51    54    1
    47    49    48    2
    48   108   107    1
    49   108   109   ar
    50    36    34   ar
    51    34    33    1
    52    48    50   am
    53    48    47    1
    54   107   104    1
    55    73    74    1
    56    47    46    1
    57    54    55    1
    58    17    15   ar
    59    33    30    1
    60    19    18    1
    61    19    20    1
    62    74    75   ar
    63    74    76   ar
    64    75    77   ar
    65    21    20    2
    66    76    78   ar
    67   115   116    1
    68   115   112    1
    69    77    79   ar
    70    15    16   ar
    71    15    14    1
    72   104   103    1
    73   104   105    1
    74    57    55   ar
    75    57    59   ar
    76    46    41   am
    77    55    56   ar
    78    20    25   am
    79   111   105   am
    80   111   112    1
    81    78    79   ar
    82   105   106    2
    83   112   113    1
    84   121   118    1
    85    30    29    1
    86    30    31    1
    87    14    11    1
    88    29    27   am
    89    59    60   ar
    90    41    42    2
    91    41    40    1
    92    25    26    1
    93    56    58   ar
    94    31    32    2
    95    31    39   am
    96    39    40    1
    97   113   114    2
    98    27    26    1
    99    27    28    2
   100   118   117    1
   101   118   119    1
   102    60    58   ar
   103    40    43    1
   104    12    11    1
   105    12    13    2
   106    11    10    1
   107    45    43    1
   108    10     3   am
   109   119   120    2
   110    43    44    1
   111   128   127    1
   112     3     2    1
   113     3     4    2
   114   126   127    1
   115   126   123    1
   116     2     5    1
   117     2     1    1
   118   127   129    1
   119     5     6    1
   120     6     7    1
   121   124   123    1
   122   124   125    2
   123     7     8    1
   124   123   122    1
   125     8     9    1
