@<TRIPOS>MOLECULE
tmp/1w9qB00.pdb
 130 125 0 0 0
SMALL
GASTEIGER

@<TRIPOS>ATOM
      1  N          6.4510  -14.2820   56.6400 N.3    93  LYS93      -0.1245
      2  CA         6.4460  -15.6030   56.0250 C.3    93  LYS93       0.1561
      3  C          5.5180  -16.5670   56.7540 C.2    93  LYS93       0.2260
      4  O          5.4350  -16.5400   57.9930 O.2    93  LYS93      -0.2867
      5  CB         7.8620  -16.1870   56.0440 C.3    93  LYS93       0.0271
      6  CG         8.7880  -15.5570   55.0010 C.3    93  LYS93       0.0035
      7  CD        10.2090  -16.0950   55.1440 C.3    93  LYS93       0.0206
      8  CE        11.1130  -15.5650   54.0130 C.3    93  LYS93       0.1093
      9  NZ        12.5350  -15.9410   54.2620 N.3    93  LYS93      -0.1314
     10  N          7.5400  -20.8710   54.7490 N.3    97  GLY97      -0.1210
     11  CA         8.5320  -19.8740   54.3640 C.3    97  GLY97       0.1956
     12  C          8.1250  -18.9900   53.1970 C.2    97  GLY97       0.2612
     13  O          8.9870  -18.3550   52.5720 O.2    97  GLY97      -0.2717
     14  N          6.8260  -18.9300   52.8960 N.am   98  HIS98      -0.1961
     15  CA         6.3450  -18.1080   51.7690 C.3    98  HIS98       0.1787
     16  C          5.6080  -16.8710   52.2370 C.2    98  HIS98       0.2620
     17  O          4.9230  -16.9080   53.2420 O.2    98  HIS98      -0.2715
     18  CB         5.4160  -18.9210   50.8680 C.3    98  HIS98       0.0785
     19  CG         6.1190  -19.9880   50.0900 C.ar   98  HIS98       0.0821
     20  ND1        6.2050  -21.2920   50.5280 N.ar   98  HIS98      -0.2267
     21  CD2        6.7980  -19.9390   48.9200 C.ar   98  HIS98       0.1154
     22  CE1        6.8940  -22.0060   49.6560 C.ar   98  HIS98       0.1986
     23  NE2        7.2630  -21.2100   48.6670 N.ar   98  HIS98      -0.2212
     24  N          5.7180  -15.7860   51.4600 N.am   99  VAL99      -0.1963
     25  CA         5.0200  -14.5410   51.7600 C.3    99  VAL99       0.1727
     26  C          3.7110  -14.4420   50.9660 C.2    99  VAL99       0.2617
     27  O          2.7440  -13.7930   51.4030 O.2    99  VAL99      -0.2715
     28  CB         5.9830  -13.3600   51.5310 C.3    99  VAL99       0.0290
     29  CG1        5.2870  -12.1270   51.1740 C.3    99  VAL99       0.0023
     30  CG2        6.8730  -13.1960   52.8020 C.3    99  VAL99       0.0023
     31  N          3.6940  -15.0940   49.8050 N.am  100  GLY100     -0.1940
     32  CA         2.4770  -15.2680   49.0360 C.3   100  GLY100      0.2014
     33  C          2.3240  -14.5110   47.7410 C.2   100  GLY100      0.2639
     34  O          1.2580  -13.9750   47.4650 O.2   100  GLY100     -0.2714
     35  N          3.3730  -14.4790   46.9270 N.am  101  PHE101     -0.1959
     36  CA         3.2300  -13.9550   45.5770 C.3   101  PHE101      0.1771
     37  C          4.0660  -14.7140   44.5680 C.2   101  PHE101      0.2619
     38  O          5.0400  -15.3710   44.9440 O.2   101  PHE101     -0.2715
     39  CB         3.4930  -12.4460   45.5170 C.3   101  PHE101      0.0574
     40  CG         4.9040  -12.0410   45.8600 C.ar  101  PHE101     -0.0200
     41  CD1        5.8630  -11.9230   44.8520 C.ar  101  PHE101     -0.0042
     42  CD2        5.2560  -11.7290   47.1820 C.ar  101  PHE101     -0.0042
     43  CE1        7.1530  -11.5320   45.1480 C.ar  101  PHE101     -0.0003
     44  CE2        6.5470  -11.3330   47.4950 C.ar  101  PHE101     -0.0003
     45  CZ         7.5070  -11.2410   46.4590 C.ar  101  PHE101     -0.0000
     46  N          3.6440  -14.6210   43.3030 N.am  102  ILE102     -0.1963
     47  CA         4.3200  -15.2400   42.1670 C.3   102  ILE102      0.1727
     48  C          5.1290  -14.1390   41.5160 C.2   102  ILE102      0.2616
     49  O          4.6930  -12.9930   41.4450 O.2   102  ILE102     -0.2715
     50  CB         3.3010  -15.8280   41.1560 C.3   102  ILE102      0.0290
     51  CG1        2.3680  -16.8430   41.8330 C.3   102  ILE102      0.0022
     52  CG2        4.0170  -16.4580   39.9440 C.3   102  ILE102      0.0023
     53  CD1        3.0600  -17.9540   42.5540 C.3   102  ILE102      0.0001
     54  N          6.3200  -14.4830   41.0650 N.am  103  PHE103     -0.1960
     55  CA         7.2570  -13.4910   40.5910 C.3   103  PHE103      0.1771
     56  C          7.8920  -14.0220   39.3120 C.2   103  PHE103      0.2619
     57  O          8.2620  -15.1810   39.2700 O.2   103  PHE103     -0.2715
     58  CB         8.3210  -13.3650   41.6720 C.3   103  PHE103      0.0574
     59  CG         9.2450  -12.2420   41.4700 C.ar  103  PHE103     -0.0200
     60  CD1        8.8320  -10.9410   41.7570 C.ar  103  PHE103     -0.0042
     61  CD2       10.5470  -12.4680   40.9770 C.ar  103  PHE103     -0.0042
     62  CE1        9.6950   -9.8620   41.5680 C.ar  103  PHE103     -0.0003
     63  CE2       11.4290  -11.3820   40.7800 C.ar  103  PHE103     -0.0003
     64  CZ        11.0050  -10.0840   41.0900 C.ar  103  PHE103     -0.0000
     65  N          8.0140  -13.1840   38.2660 N.am  104  LYS104     -0.1977
     66  CA         8.6760  -13.5910   37.0230 C.3   104  LYS104      0.1596
     67  C          9.3080  -12.3790   36.3670 C.2   104  LYS104      0.2287
     68  O          8.6630  -11.3220   36.2710 O.2   104  LYS104     -0.2864
     69  CB         7.6820  -14.2570   36.0540 C.3   104  LYS104      0.0298
     70  CG         8.3080  -14.7890   34.7640 C.3   104  LYS104      0.0038
     71  CD         7.4340  -15.8970   34.1770 C.3   104  LYS104      0.0206
     72  CE         7.7930  -16.2200   32.7390 C.3   104  LYS104      0.1093
     73  NZ         6.6980  -17.0060   32.1160 N.3   104  LYS104     -0.1314
     74  N          3.5330  -11.0460   39.7490 N.3   109  THR109     -0.1218
     75  CA         2.5220  -11.3850   38.7340 C.3   109  THR109      0.1862
     76  C          1.2000  -11.9210   39.2880 C.2   109  THR109      0.2287
     77  O          0.1680  -11.8220   38.6250 O.2   109  THR109     -0.2866
     78  CB         3.0860  -12.3710   37.6720 C.3   109  THR109      0.1770
     79  OG1        3.5560  -13.5610   38.3160 O.3   109  THR109     -0.2211
     80  CG2        4.3330  -11.7980   36.9780 C.3   109  THR109      0.0375
     81  N         -1.0490  -14.7930   46.1860 N.3   112  VAL112     -0.1245
     82  CA        -1.5550  -16.0910   46.6710 C.3   112  VAL112      0.1561
     83  C         -2.6400  -15.9000   47.7180 C.2   112  VAL112      0.2260
     84  O         -2.4870  -15.0810   48.6290 O.2   112  VAL112     -0.2867
     85  CB        -0.4130  -17.0040   47.2000 C.3   112  VAL112      0.0252
     86  CG1       -0.9630  -18.3750   47.6840 C.3   112  VAL112      0.0019
     87  CG2        0.6770  -17.1820   46.1330 C.3   112  VAL112      0.0019
     88  N         10.0620   -5.2040   42.1380 N.3   128  ILE128     -0.1245
     89  CA        10.6780   -5.1380   43.4620 C.3   128  ILE128      0.1561
     90  C         12.0320   -4.4440   43.3440 C.2   128  ILE128      0.2260
     91  O         12.8780   -4.8580   42.5420 O.2   128  ILE128     -0.2867
     92  CB        10.8350   -6.5390   44.0790 C.3   128  ILE128      0.0252
     93  CG1        9.4530   -7.1890   44.2550 C.3   128  ILE128      0.0019
     94  CG2       11.5640   -6.4380   45.4280 C.3   128  ILE128      0.0019
     95  CD1        9.5080   -8.5770   44.8550 C.3   128  ILE128      0.0001
     96  N         15.8920  -13.7950   38.7320 N.3   141  ASP141     -0.1225
     97  CA        14.8170  -14.2430   39.6220 C.3   141  ASP141      0.1805
     98  C         15.3390  -15.2340   40.6880 C.2   141  ASP141      0.2598
     99  O         14.9410  -15.1670   41.8640 O.2   141  ASP141     -0.2718
    100  CB        13.6840  -14.9130   38.8330 C.3   141  ASP141      0.1424
    101  CG        12.8540  -13.9470   37.9870 C.2   141  ASP141      0.3668
    102  OD1       12.9020  -12.6960   38.1620 O.co2 141  ASP141     -0.2456
    103  OD2       12.0910  -14.3950   37.0950 O.co2 141  ASP141     -0.2456
    104  N         16.2120  -16.1560   40.2750 N.am  142  SER142     -0.1952
    105  CA        16.7790  -17.1340   41.2040 C.3   142  SER142      0.1924
    106  C         17.5930  -16.4660   42.3100 C.2   142  SER142      0.2314
    107  O         17.5300  -16.8850   43.4600 O.2   142  SER142     -0.2863
    108  CB        17.6100  -18.2200   40.4800 C.3   142  SER142      0.2116
    109  OG        18.5980  -17.6470   39.6270 O.3   142  SER142     -0.2180
    110  N         17.0850  -13.3700   43.4240 N.3   144  ILE144     -0.1231
    111  CA        16.0870  -12.7500   44.2930 C.3   144  ILE144      0.1692
    112  C         15.4890  -13.7860   45.2480 C.2   144  ILE144      0.2591
    113  O         15.3300  -13.5250   46.4490 O.2   144  ILE144     -0.2718
    114  CB        15.0090  -11.9980   43.4540 C.3   144  ILE144      0.0266
    115  CG1       15.6510  -10.7930   42.7570 C.3   144  ILE144      0.0019
    116  CG2       13.8730  -11.5060   44.3430 C.3   144  ILE144      0.0020
    117  CD1       14.8030  -10.1660   41.6250 C.3   144  ILE144      0.0001
    118  N         15.1640  -14.9570   44.7250 N.am  145  ALA145     -0.1980
    119  CA        14.6820  -16.0450   45.5720 C.3   145  ALA145      0.1597
    120  C         15.6720  -16.3790   46.6990 C.2   145  ALA145      0.2287
    121  O         15.2520  -16.5730   47.8510 O.2   145  ALA145     -0.2864
    122  CB        14.3880  -17.2800   44.7380 C.3   145  ALA145      0.0319
    123  N         15.4510  -13.6620   49.3360 N.3   148  LEU148     -0.1245
    124  CA        14.2130  -13.8310   50.1210 C.3   148  LEU148      0.1561
    125  C         14.3170  -14.9420   51.1680 C.2   148  LEU148      0.2260
    126  O         13.8310  -14.7910   52.2960 O.2   148  LEU148     -0.2867
    127  CB        13.0070  -14.0960   49.2170 C.3   148  LEU148      0.0270
    128  CG        12.3460  -12.8850   48.5910 C.3   148  LEU148      0.0019
    129  CD1       11.3300  -13.3340   47.5600 C.3   148  LEU148      0.0001
    130  CD2       11.6840  -11.9700   49.6310 C.3   148  LEU148      0.0001
@<TRIPOS>BOND
     1    73    72    1
     2    72    71    1
     3    71    70    1
     4    70    69    1
     5    69    66    1
     6    68    67    2
     7    67    66    1
     8    80    78    1
     9    66    65    1
    10   103   101   ar
    11    78    79    1
    12    78    75    1
    13   101   102   ar
    14   101   100    1
    15    65    56   am
    16    77    76    2
    17    96    97    1
    18    75    76    1
    19    75    74    1
    20   100    97    1
    21    57    56    2
    22    56    55    1
    23    97    98    1
    24   109   108    1
    25    52    50    1
    26   104    98   am
    27   104   105    1
    28   108   105    1
    29    55    54    1
    30    55    58    1
    31    98    99    2
    32    63    61   ar
    33    63    64   ar
    34    61    59   ar
    35    54    48   am
    36    64    62   ar
    37    50    51    1
    38    50    47    1
    39   105   106    1
    40    49    48    2
    41    59    58    1
    42    59    60   ar
    43    48    47    1
    44    62    60   ar
    45   117   115    1
    46    51    53    1
    47    88    89    1
    48    47    46    1
    49   106   107    2
    50    91    90    2
    51   115   114    1
    52    46    37   am
    53    90    89    1
    54   110   111    1
    55   114   111    1
    56   114   116    1
    57    89    92    1
    58    92    93    1
    59    92    94    1
    60    93    95    1
    61   111   112    1
    62    37    38    2
    63    37    36    1
    64   118   112   am
    65   118   119    1
    66   122   119    1
    67    41    43   ar
    68    41    40   ar
    69    43    45   ar
    70   112   113    2
    71    39    36    1
    72    39    40    1
    73   119   120    1
    74    36    35    1
    75    40    42   ar
    76    87    85    1
    77    81    82    1
    78    45    44   ar
    79    82    85    1
    80    82    83    1
    81   120   121    2
    82    35    33   am
    83    42    44   ar
    84    85    86    1
    85    34    33    2
    86   129   128    1
    87    83    84    2
    88    33    32    1
    89   128   127    1
    90   128   130    1
    91    23    21   ar
    92    23    22   ar
    93    21    19   ar
    94    32    31    1
    95   127   124    1
    96   123   124    1
    97    22    20   ar
    98    31    26   am
    99    19    20   ar
   100    19    18    1
   101   124   125    1
   102    18    15    1
   103    26    27    2
   104    26    25    1
   105   125   126    2
   106    29    28    1
   107    24    25    1
   108    24    16   am
   109    28    25    1
   110    28    30    1
   111    15    16    1
   112    15    14    1
   113    16    17    2
   114    13    12    2
   115    14    12   am
   116    12    11    1
   117     8     9    1
   118     8     7    1
   119    11    10    1
   120     6     7    1
   121     6     5    1
   122     2     5    1
   123     2     1    1
   124     2     3    1
   125     3     4    2
