@<TRIPOS>MOLECULE
tmp/1w9tA00.pdb
 101 100 0 0 0
SMALL
GASTEIGER

@<TRIPOS>ATOM
      1  N         12.9800    5.4640    2.9880 N.3    23  GLU23      -0.1245
      2  CA        13.7280    6.1630    4.0440 C.3    23  GLU23       0.1567
      3  C         13.3630    5.5100    5.3980 C.2    23  GLU23       0.2260
      4  O         12.3390    4.7910    5.5570 O.2    23  GLU23      -0.2867
      5  CB        13.3340    7.6450    4.0450 C.3    23  GLU23       0.0388
      6  CG        11.8640    7.8420    4.3740 C.3    23  GLU23       0.1160
      7  CD        11.4920    9.2890    4.5080 C.2    23  GLU23       0.3649
      8  OE1       12.3420   10.1470    4.8730 O.co2  23  GLU23      -0.2457
      9  OE2       10.3040    9.5650    4.3320 O.co2  23  GLU23      -0.2457
     10  N          8.2160    6.8310    0.3020 N.3    35  GLY35      -0.1210
     11  CA         7.9170    8.2660    0.2390 C.3    35  GLY35       0.1956
     12  C          8.2660    8.7910   -1.1410 C.2    35  GLY35       0.2612
     13  O          8.4160    7.9960   -2.0920 O.2    35  GLY35      -0.2717
     14  N          8.3600   10.1050   -1.2550 N.am   36  TRP36      -0.1962
     15  CA         8.4900   10.7900   -2.5440 C.3    36  TRP36       0.1771
     16  C          7.3880   10.3040   -3.5210 C.2    36  TRP36       0.2619
     17  O          7.6660    9.8500   -4.6520 O.2    36  TRP36      -0.2715
     18  CB         9.8900   10.5870   -3.1040 C.3    36  TRP36       0.0590
     19  CG        10.9210   11.2580   -2.2560 C.ar   36  TRP36       0.0006
     20  CD1       11.4500   12.5210   -2.4330 C.ar   36  TRP36       0.0946
     21  CD2       11.5360   10.7380   -1.0740 C.ar   36  TRP36       0.0152
     22  NE1       12.3120   12.8120   -1.4070 N.ar   36  TRP36      -0.2442
     23  CE2       12.4110   11.7300   -0.5830 C.ar   36  TRP36       0.0810
     24  CE3       11.4240    9.5440   -0.3630 C.ar   36  TRP36       0.0012
     25  CZ2       13.1590   11.5590    0.5630 C.ar   36  TRP36       0.0191
     26  CZ3       12.1760    9.3800    0.7530 C.ar   36  TRP36       0.0001
     27  CH2       13.0380   10.3900    1.2150 C.ar   36  TRP36       0.0015
     28  N          6.1560   10.3120   -2.9950 N.am   37  ILE37      -0.1977
     29  CA         4.9780    9.7550   -3.7050 C.3    37  ILE37       0.1596
     30  C          4.2820   10.8700   -4.4610 C.2    37  ILE37       0.2287
     31  O          4.0060   11.9330   -3.9030 O.2    37  ILE37      -0.2864
     32  CB         4.0160    9.0220   -2.7490 C.3    37  ILE37       0.0276
     33  CG1        4.6160    7.6740   -2.3000 C.3    37  ILE37       0.0022
     34  CG2        2.6800    8.7600   -3.4470 C.3    37  ILE37       0.0022
     35  CD1        3.9480    7.0680   -1.0780 C.3    37  ILE37       0.0001
     36  N          1.4500   17.5550    3.2010 N.3    65  THR65      -0.1218
     37  CA         0.7080   18.2840    2.1580 C.3    65  THR65       0.1862
     38  C         -0.7930   17.9490    2.2580 C.2    65  THR65       0.2287
     39  O         -1.2250   17.2850    3.1860 O.2    65  THR65      -0.2866
     40  CB         1.2420   17.8870    0.7840 C.3    65  THR65       0.1770
     41  OG1        0.9770   16.4880    0.5480 O.3    65  THR65      -0.2211
     42  CG2        2.7010   18.0130    0.7020 C.3    65  THR65       0.0375
     43  N          5.7470   14.9890    7.5620 N.3    93  TRP93      -0.1227
     44  CA         6.1450   13.7790    6.8710 C.3    93  TRP93       0.1737
     45  C          6.3630   12.5750    7.7750 C.2    93  TRP93       0.2595
     46  O          6.3740   11.4070    7.2780 O.2    93  TRP93      -0.2718
     47  CB         7.3720   14.0360    5.9830 C.3    93  TRP93       0.0564
     48  CG         7.1270   14.9690    4.8870 C.ar   93  TRP93       0.0003
     49  CD1        7.6630   16.2360    4.7410 C.ar   93  TRP93       0.0946
     50  CD2        6.2080   14.7870    3.7800 C.ar   93  TRP93       0.0152
     51  NE1        7.2340   16.7810    3.5540 N.ar   93  TRP93      -0.2442
     52  CE2        6.3220   15.9330    2.9510 C.ar   93  TRP93       0.0810
     53  CE3        5.3600   13.7470    3.3810 C.ar   93  TRP93       0.0012
     54  CZ2        5.5720   16.1060    1.7710 C.ar   93  TRP93       0.0191
     55  CZ3        4.6350   13.8920    2.1790 C.ar   93  TRP93       0.0001
     56  CH2        4.7520   15.0860    1.3820 C.ar   93  TRP93       0.0015
     57  N          6.5210   12.8200    9.0880 N.am   94  GLN94      -0.1979
     58  CA         6.6680   11.7420   10.0490 C.3    94  GLN94       0.1601
     59  C          5.6800   11.8480   11.1840 C.2    94  GLN94       0.2287
     60  O          5.9460   11.3390   12.3000 O.2    94  GLN94      -0.2864
     61  CB         8.1180   11.6110   10.5260 C.3    94  GLN94       0.0394
     62  CG         9.1260   11.3560    9.3800 C.3    94  GLN94       0.0908
     63  CD         9.0730    9.9050    8.8740 C.2    94  GLN94       0.2608
     64  OE1        8.7260    8.9810    9.6520 O.2    94  GLN94      -0.2717
     65  NE2        9.4520    9.6820    7.6020 N.am   94  GLN94      -0.0878
     66  N          2.4120   18.4280   -5.9860 N.3   122  TYR122     -0.1227
     67  CA         3.1080   18.2780   -4.6980 C.3   122  TYR122      0.1736
     68  C          3.2210   16.7980   -4.3710 C.2   122  TYR122      0.2595
     69  O          2.4250   15.9770   -4.8870 O.2   122  TYR122     -0.2718
     70  CB         2.4330   19.0530   -3.5500 C.3   122  TYR122      0.0548
     71  CG         0.9220   18.8690   -3.4050 C.ar  122  TYR122     -0.0200
     72  CD1        0.3830   17.7620   -2.8120 C.ar  122  TYR122     -0.0009
     73  CD2        0.0330   19.8360   -3.8660 C.ar  122  TYR122     -0.0009
     74  CE1       -1.0090   17.5860   -2.7280 C.ar  122  TYR122      0.0417
     75  CE2       -1.3340   19.6760   -3.7680 C.ar  122  TYR122      0.0417
     76  CZ        -1.8550   18.5690   -3.1850 C.ar  122  TYR122      0.1957
     77  OH        -3.2270   18.4610   -3.1190 O.3   122  TYR122     -0.2866
     78  N          4.2310   16.4430   -3.5770 N.am  123  ASP123     -0.1974
     79  CA         4.3530   15.0560   -3.1230 C.3   123  ASP123      0.1709
     80  C          3.1690   14.8040   -2.1610 C.2   123  ASP123      0.2293
     81  O          2.7170   15.6960   -1.4530 O.2   123  ASP123     -0.2864
     82  CB         5.6800   14.8340   -2.3940 C.3   123  ASP123      0.1436
     83  CG         6.8780   14.9070   -3.2740 C.2   123  ASP123      0.3671
     84  OD1        6.7980   15.3510   -4.4310 O.co2 123  ASP123     -0.2456
     85  OD2        8.0120   14.5250   -2.8510 O.co2 123  ASP123     -0.2456
     86  N          2.3180   11.8180    0.1100 N.3   125  MET125     -0.1230
     87  CA         2.2100   11.0690    1.3480 C.3   125  MET125      0.1702
     88  C          3.3980   10.1690    1.5260 C.2   125  MET125      0.2592
     89  O          4.0930    9.9070    0.5570 O.2   125  MET125     -0.2718
     90  CB         0.9750   10.1480    1.3500 C.3   125  MET125      0.0401
     91  CG         0.9890    9.0330    0.2480 C.3   125  MET125      0.0596
     92  SD        -0.5520    8.1030    0.1350 S.3   125  MET125     -0.1393
     93  CE        -1.4060    9.3120   -0.8420 C.3   125  MET125      0.0692
     94  N          3.5090    9.6300    2.7370 N.am  126  ASN126     -0.1974
     95  CA         4.4160    8.5400    3.0670 C.3   126  ASN126      0.1688
     96  C          3.5540    7.3440    3.5550 C.2   126  ASN126      0.2292
     97  O          2.4760    7.5450    4.1220 O.2   126  ASN126     -0.2864
     98  CB         5.3930    8.9710    4.1850 C.3   126  ASN126      0.1181
     99  CG         6.4410   10.0080    3.7300 C.2   126  ASN126      0.2629
    100  OD1        6.7680   10.0660    2.5560 O.2   126  ASN126     -0.2716
    101  ND2        7.0180   10.7980    4.6880 N.am  126  ASN126     -0.0877
@<TRIPOS>BOND
     1    66    67    1
     2    69    68    2
     3    67    68    1
     4    67    70    1
     5    17    16    2
     6    30    31    2
     7    30    29    1
     8    84    83   ar
     9    68    78   am
    10    73    75   ar
    11    73    71   ar
    12    75    76   ar
    13    29    28    1
    14    29    32    1
    15    78    79    1
    16    70    71    1
    17    16    28   am
    18    16    15    1
    19    34    32    1
    20    71    72   ar
    21    83    85   ar
    22    83    82    1
    23    76    77    1
    24    76    74   ar
    25    79    82    1
    26    79    80    1
    27    18    15    1
    28    18    19    1
    29    72    74   ar
    30    32    33    1
    31    15    14    1
    32    20    19   ar
    33    20    22   ar
    34    33    35    1
    35    19    21   ar
    36    80    81    2
    37    13    12    2
    38    22    23   ar
    39    14    12   am
    40    12    11    1
    41    21    23   ar
    42    21    24   ar
    43    93    92    1
    44    23    25   ar
    45    24    26   ar
    46    86    87    1
    47    92    91    1
    48    11    10    1
    49    91    90    1
    50    41    40    1
    51    89    88    2
    52    25    27   ar
    53    42    40    1
    54    26    27   ar
    55    40    37    1
    56    87    90    1
    57    87    88    1
    58    56    54   ar
    59    56    55   ar
    60    88    94   am
    61    54    52   ar
    62    37    38    1
    63    37    36    1
    64    55    53   ar
    65    38    39    2
    66   100    99    2
    67    94    95    1
    68    52    51   ar
    69    52    50   ar
    70     1     2    1
    71    95    96    1
    72    95    98    1
    73    53    50   ar
    74    51    49   ar
    75    96    97    2
    76    99    98    1
    77    99   101   am
    78    50    48   ar
    79     2     5    1
    80     2     3    1
    81     5     6    1
    82     9     7   ar
    83     6     7    1
    84     7     8   ar
    85    49    48   ar
    86    48    47    1
    87     3     4    2
    88    47    44    1
    89    44    43    1
    90    44    45    1
    91    46    45    2
    92    65    63   am
    93    45    57   am
    94    63    62    1
    95    63    64    2
    96    57    58    1
    97    62    61    1
    98    58    61    1
    99    58    59    1
   100    59    60    2
