@<TRIPOS>MOLECULE
tmp/1w9wA00.pdb
 129 127 0 0 0
SMALL
GASTEIGER

@<TRIPOS>ATOM
      1  N         57.5020    6.0660   -2.8510 N.3    23  GLU23      -0.1245
      2  CA        58.3090    7.2370   -3.2780 C.3    23  GLU23       0.1567
      3  C         58.0820    8.3330   -2.2340 C.2    23  GLU23       0.2260
      4  O         57.0890    8.2760   -1.4830 O.2    23  GLU23      -0.2867
      5  CB        57.8330    7.7700   -4.6630 C.3    23  GLU23       0.0388
      6  CG        56.4020    8.3650   -4.5940 C.3    23  GLU23       0.1160
      7  CD        55.7550    8.6840   -5.9580 C.2    23  GLU23       0.3649
      8  OE1       56.4900    9.0130   -6.8860 O.co2  23  GLU23      -0.2457
      9  OE2       54.5120    8.6090   -6.1080 O.co2  23  GLU23      -0.2457
     10  N         52.4020    3.9740   -4.5880 N.3    35  GLY35      -0.1210
     11  CA        52.1260    4.3250   -5.9560 C.3    35  GLY35       0.1956
     12  C         52.3500    3.1310   -6.8330 C.2    35  GLY35       0.2611
     13  O         52.6900    2.0250   -6.3680 O.2    35  GLY35      -0.2717
     14  N         52.2720    3.3600   -8.1370 N.am   36  TRP36      -0.1976
     15  CA        52.3900    2.2640   -9.0870 C.3    36  TRP36       0.1640
     16  C         51.3060    1.2060   -8.7970 C.2    36  TRP36       0.2290
     17  O         51.5400   -0.0120   -8.8560 O.2    36  TRP36      -0.2864
     18  CB        53.7890    1.6710   -9.0850 C.3    36  TRP36       0.0576
     19  CG        54.7780    2.5830   -9.6700 C.ar   36  TRP36       0.0006
     20  CD1       55.1600    2.6360  -10.9700 C.ar   36  TRP36       0.0946
     21  CD2       55.5160    3.6010   -8.9920 C.ar   36  TRP36       0.0152
     22  NE1       56.0790    3.6350  -11.1520 N.ar   36  TRP36      -0.2442
     23  CE2       56.3360    4.2290   -9.9480 C.ar   36  TRP36       0.0810
     24  CE3       55.5690    4.0450   -7.6660 C.ar   36  TRP36       0.0012
     25  CZ2       57.2140    5.2800   -9.6290 C.ar   36  TRP36       0.0191
     26  CZ3       56.4330    5.0840   -7.3400 C.ar   36  TRP36       0.0001
     27  CH2       57.2420    5.6980   -8.3240 C.ar   36  TRP36       0.0015
     28  N         46.5340   10.7730  -11.7650 N.3    64  ASP64      -0.1225
     29  CA        46.7010   11.4420  -13.0460 C.3    64  ASP64       0.1805
     30  C         45.9210   10.7010  -14.1430 C.2    64  ASP64       0.2598
     31  O         46.0170   11.0260  -15.3330 O.2    64  ASP64      -0.2718
     32  CB        48.1920   11.6030  -13.3680 C.3    64  ASP64       0.1424
     33  CG        48.4400   12.4880  -14.5630 C.2    64  ASP64       0.3668
     34  OD1       47.6900   13.4820  -14.6650 O.co2  64  ASP64      -0.2456
     35  OD2       49.3580   12.2900  -15.4220 O.co2  64  ASP64      -0.2456
     36  N         45.1040    9.7350  -13.7380 N.am   65  THR65      -0.1939
     37  CA        44.3610    8.9100  -14.6690 C.3    65  THR65       0.2013
     38  C         42.8550    8.9960  -14.3530 C.2    65  THR65       0.2484
     39  O         42.4620    9.7580  -13.5160 O.2    65  THR65      -0.2729
     40  CB        44.9450    7.4520  -14.6350 C.3    65  THR65       0.1807
     41  OG1       44.7480    6.8220  -13.3350 O.3    65  THR65      -0.2208
     42  CG2       46.4850    7.4730  -14.8970 C.3    65  THR65       0.0379
     43  N         42.0010    8.2590  -15.0410 N.am   66  PRO66      -0.2726
     44  CA        40.5970    8.1800  -14.6130 C.3    66  PRO66       0.1402
     45  C         40.3890    7.7000  -13.1760 C.2    66  PRO66       0.2269
     46  O         39.3180    7.9480  -12.6400 O.2    66  PRO66      -0.2865
     47  CB        39.9800    7.2180  -15.6000 C.3    66  PRO66       0.0296
     48  CG        40.8900    7.3490  -16.8730 C.3    66  PRO66       0.0237
     49  CD        42.2520    7.4550  -16.2500 C.3    66  PRO66       0.0939
     50  N         40.2480   11.3080  -10.8330 N.3    89  ASN89      -0.1240
     51  CA        41.3330   12.1150  -11.2660 C.3    89  ASN89       0.1653
     52  C         41.3350   13.3240  -10.3790 C.2    89  ASN89       0.2266
     53  O         40.2740   13.8040  -10.0180 O.2    89  ASN89      -0.2867
     54  CB        41.1660   12.5540  -12.7030 C.3    89  ASN89       0.1155
     55  CG        42.3700   13.2740  -13.1920 C.2    89  ASN89       0.2627
     56  OD1       43.3580   12.6480  -13.5980 O.2    89  ASN89      -0.2716
     57  ND2       42.3540   14.5620  -13.0900 N.am   89  ASN89      -0.0877
     58  N         44.1690   15.6900  -11.0080 N.3    91  GLY91      -0.1225
     59  CA        45.0060   16.7040  -11.6470 C.3    91  GLY91       0.1811
     60  C         46.4650   16.3400  -11.7790 C.2    91  GLY91       0.2280
     61  O         47.2120   17.0420  -12.4680 O.2    91  GLY91      -0.2866
     62  N         49.7120   13.1490  -10.1860 N.3    93  TRP93      -0.1227
     63  CA        50.2650   12.1410   -9.2720 C.3    93  TRP93       0.1737
     64  C         50.5830   12.7070   -7.8870 C.2    93  TRP93       0.2595
     65  O         50.5440   11.9640   -6.8780 O.2    93  TRP93      -0.2718
     66  CB        51.5470   11.5460   -9.8530 C.3    93  TRP93       0.0564
     67  CG        51.2790   10.6930  -11.0130 C.ar   93  TRP93       0.0003
     68  CD1       51.8540   10.7870  -12.2630 C.ar   93  TRP93       0.0946
     69  CD2       50.3050    9.6420  -11.0840 C.ar   93  TRP93       0.0152
     70  NE1       51.2940    9.8380  -13.0890 N.ar   93  TRP93      -0.2442
     71  CE2       50.3610    9.1090  -12.3830 C.ar   93  TRP93       0.0810
     72  CE3       49.4200    9.0580  -10.1490 C.ar   93  TRP93       0.0012
     73  CZ2       49.5560    8.0110  -12.7920 C.ar   93  TRP93       0.0191
     74  CZ3       48.6260    8.0040  -10.5430 C.ar   93  TRP93       0.0001
     75  CH2       48.6980    7.4870  -11.8610 C.ar   93  TRP93       0.0015
     76  N         50.9090   14.0030   -7.8580 N.am   94  GLN94      -0.1979
     77  CA        51.1800   14.7040   -6.6090 C.3    94  GLN94       0.1601
     78  C         50.2160   15.8600   -6.3270 C.2    94  GLN94       0.2287
     79  O         50.6070   16.8800   -5.7340 O.2    94  GLN94      -0.2864
     80  CB        52.6430   15.1550   -6.5590 C.3    94  GLN94       0.0394
     81  CG        53.6140   13.9720   -6.4830 C.3    94  GLN94       0.0908
     82  CD        53.5010   13.1270   -5.1690 C.2    94  GLN94       0.2608
     83  OE1       52.9540   13.6030   -4.1380 O.2    94  GLN94      -0.2717
     84  NE2       54.0130   11.8860   -5.2160 N.am   94  GLN94      -0.0878
     85  N         44.1970   -0.9050  -17.7460 N.3   121  GLU121     -0.1231
     86  CA        44.9450   -0.2060  -18.8010 C.3   121  GLU121      0.1699
     87  C         45.8950    0.8870  -18.3080 C.2   121  GLU121      0.2592
     88  O         46.7900    1.2930  -19.0350 O.2   121  GLU121     -0.2718
     89  CB        43.9910    0.3360  -19.8760 C.3   121  GLU121      0.0402
     90  CG        43.0760   -0.7400  -20.5120 C.3   121  GLU121      0.1161
     91  CD        43.8390   -1.9550  -21.0790 C.2   121  GLU121      0.3649
     92  OE1       45.0150   -1.8190  -21.5570 O.co2 121  GLU121     -0.2457
     93  OE2       43.2620   -3.0660  -21.0440 O.co2 121  GLU121     -0.2457
     94  N         45.7120    1.3680  -17.0850 N.am  122  TYR122     -0.1962
     95  CA        46.5650    2.4210  -16.5640 C.3   122  TYR122      0.1771
     96  C         46.7110    2.2890  -15.0290 C.2   122  TYR122      0.2619
     97  O         45.9020    1.6340  -14.3500 O.2   122  TYR122     -0.2715
     98  CB        46.0250    3.7910  -16.9640 C.3   122  TYR122      0.0574
     99  CG        44.5170    3.8590  -16.8030 C.ar  122  TYR122     -0.0198
    100  CD1       43.9410    3.9610  -15.5490 C.ar  122  TYR122     -0.0009
    101  CD2       43.6700    3.7690  -17.9040 C.ar  122  TYR122     -0.0009
    102  CE1       42.5680    4.0060  -15.3930 C.ar  122  TYR122      0.0417
    103  CE2       42.2830    3.8110  -17.7580 C.ar  122  TYR122      0.0417
    104  CZ        41.7370    3.9270  -16.5000 C.ar  122  TYR122      0.1957
    105  OH        40.3510    3.9320  -16.3060 O.3   122  TYR122     -0.2866
    106  N         47.7410    2.9330  -14.4930 N.am  123  ASP123     -0.1971
    107  CA        47.9340    2.9890  -13.0560 C.3   123  ASP123      0.1709
    108  C         46.7350    3.8200  -12.4940 C.2   123  ASP123      0.2293
    109  O         46.1630    4.6550  -13.1880 O.2   123  ASP123     -0.2864
    110  CB        49.3090    3.6000  -12.6850 C.3   123  ASP123      0.1436
    111  CG        50.5140    2.8310  -13.3100 C.2   123  ASP123      0.3671
    112  OD1       50.4390    1.5800  -13.5840 O.co2 123  ASP123     -0.2456
    113  OD2       51.5830    3.4350  -13.6020 O.co2 123  ASP123     -0.2456
    114  N         46.2530    5.3610   -9.0700 N.3   125  MET125     -0.1230
    115  CA        46.3180    6.3230   -7.9740 C.3   125  MET125      0.1702
    116  C         47.5660    6.1540   -7.1210 C.2   125  MET125      0.2592
    117  O         48.2370    5.1250   -7.1560 O.2   125  MET125     -0.2718
    118  CB        45.1270    6.1380   -7.0200 C.3   125  MET125      0.0401
    119  CG        45.1320    4.8170   -6.2850 C.3   125  MET125      0.0596
    120  SD        43.7600    4.4920   -5.2230 S.3   125  MET125     -0.1393
    121  CE        42.6860    3.4410   -6.3220 C.3   125  MET125      0.0692
    122  N         47.8110    7.2000   -6.3530 N.am  126  ASN126     -0.1974
    123  CA        48.6790    7.2310   -5.2140 C.3   126  ASN126      0.1688
    124  C         47.9140    7.4550   -3.9370 C.2   126  ASN126      0.2292
    125  O         46.8530    8.1350   -3.8710 O.2   126  ASN126     -0.2864
    126  CB        49.7060    8.3680   -5.3550 C.3   126  ASN126      0.1181
    127  CG        50.6540    8.1290   -6.4520 C.2   126  ASN126      0.2629
    128  OD1       50.7980    6.9990   -6.8860 O.2   126  ASN126     -0.2716
    129  ND2       51.3460    9.1780   -6.9050 N.am  126  ASN126     -0.0877
@<TRIPOS>BOND
     1    92    91   ar
     2    91    93   ar
     3    91    90    1
     4    90    89    1
     5    89    86    1
     6    88    87    2
     7    86    87    1
     8    86    85    1
     9    87    94   am
    10   101   103   ar
    11   101    99   ar
    12   103   104   ar
    13    94    95    1
    14    98    99    1
    15    98    95    1
    16    48    49    1
    17    48    47    1
    18    99   100   ar
    19    95    96    1
    20   104   105    1
    21   104   102   ar
    22    49    43    1
    23    47    44    1
    24   100   102   ar
    25    35    33   ar
    26    31    30    2
    27    43    44    1
    28    43    38   am
    29    96   106   am
    30    96    97    2
    31    42    40    1
    32    37    40    1
    33    37    38    1
    34    37    36    1
    35    34    33   ar
    36    40    41    1
    37    44    45    1
    38    33    32    1
    39   106   107    1
    40    38    39    2
    41    30    36   am
    42    30    29    1
    43   113   111   ar
    44    56    55    2
    45   112   111   ar
    46    32    29    1
    47   111   110    1
    48    55    57   am
    49    55    54    1
    50   109   108    2
    51    45    46    2
    52    70    71   ar
    53    70    68   ar
    54   107   110    1
    55   107   108    1
    56    29    28    1
    57    73    71   ar
    58    73    75   ar
    59    54    51    1
    60    61    60    2
    61    71    69   ar
    62    68    67   ar
    63    75    74   ar
    64    60    59    1
    65    59    58    1
    66    51    50    1
    67    51    52    1
    68    22    20   ar
    69    22    23   ar
    70    69    67   ar
    71    69    72   ar
    72    67    66    1
    73    20    19   ar
    74    74    72   ar
    75    52    53    2
    76    62    63    1
    77    23    25   ar
    78    23    21   ar
    79    66    63    1
    80    19    18    1
    81    19    21   ar
    82    25    27   ar
    83    63    64    1
    84    15    18    1
    85    15    16    1
    86    15    14    1
    87   114   115    1
    88    21    24   ar
    89    17    16    2
    90    27    26   ar
    91    14    12   am
    92   115   116    1
    93   115   118    1
    94    64    76   am
    95    64    65    2
    96    76    77    1
    97    24    26   ar
    98   117   116    2
    99   116   122   am
   100   118   119    1
   101   129   127   am
   102     8     7   ar
   103   128   127    2
   104    12    13    2
   105    12    11    1
   106    77    80    1
   107    77    78    1
   108    80    81    1
   109    81    82    1
   110   127   126    1
   111   122   123    1
   112    78    79    2
   113   121   120    1
   114   119   120    1
   115     9     7   ar
   116     7     6    1
   117    11    10    1
   118   126   123    1
   119    84    82   am
   120   123   124    1
   121    82    83    2
   122     5     6    1
   123     5     2    1
   124   124   125    2
   125     2     1    1
   126     2     3    1
   127     3     4    2
