@<TRIPOS>MOLECULE
tmp/1wawA00.pdb
 230 225 0 0 0
SMALL
GASTEIGER

@<TRIPOS>ATOM
      1  N         -2.7440    2.6160   19.4640 N.3     6  TYR6       -0.1241
      2  CA        -2.2450    2.0640   18.2070 C.3     6  TYR6        0.1605
      3  C         -3.2830    1.2220   17.4830 C.2     6  TYR6        0.2264
      4  O         -3.9340    0.3720   18.0800 O.2     6  TYR6       -0.2867
      5  CB        -0.9970    1.2040   18.4560 C.3     6  TYR6        0.0534
      6  CG         0.2820    1.9890   18.6210 C.ar    6  TYR6       -0.0201
      7  CD1        1.0230    2.4020   17.5070 C.ar    6  TYR6       -0.0009
      8  CD2        0.7520    2.3260   19.8900 C.ar    6  TYR6       -0.0009
      9  CE1        2.2020    3.1240   17.6560 C.ar    6  TYR6        0.0417
     10  CE2        1.9290    3.0570   20.0490 C.ar    6  TYR6        0.0417
     11  CZ         2.6500    3.4460   18.9380 C.ar    6  TYR6        0.1957
     12  OH         3.8450    4.1190   19.1090 O.3     6  TYR6       -0.2866
     13  N         -3.1910   -4.8540    9.8510 N.3    10  TRP10      -0.1241
     14  CA        -3.2980   -6.2600    9.4790 C.3    10  TRP10       0.1605
     15  C         -4.4050   -6.9370   10.2860 C.2    10  TRP10       0.2264
     16  O         -4.7200   -8.1000   10.0590 O.2    10  TRP10      -0.2867
     17  CB        -1.9570   -6.9840    9.6830 C.3    10  TRP10       0.0550
     18  CG        -1.4400   -6.9870   11.0820 C.ar   10  TRP10       0.0003
     19  CD1       -1.6480   -7.9460   12.0370 C.ar   10  TRP10       0.0946
     20  CD2       -0.6040   -5.9930   11.6850 C.ar   10  TRP10       0.0152
     21  NE1       -0.9860   -7.6090   13.1970 N.ar   10  TRP10      -0.2442
     22  CE2       -0.3410   -6.4140   13.0090 C.ar   10  TRP10       0.0810
     23  CE3       -0.0510   -4.7840   11.2350 C.ar   10  TRP10       0.0012
     24  CZ2        0.4520   -5.6720   13.8880 C.ar   10  TRP10       0.0191
     25  CZ3        0.7420   -4.0420   12.1150 C.ar   10  TRP10       0.0001
     26  CH2        0.9830   -4.4920   13.4250 C.ar   10  TRP10       0.0015
     27  N          1.3790   -0.2330   10.2340 N.3    37  PHE37      -0.1241
     28  CA         2.6610    0.4670   10.0950 C.3    37  PHE37       0.1605
     29  C          2.8320    0.8820    8.6320 C.2    37  PHE37       0.2264
     30  O          2.2510    0.2690    7.7280 O.2    37  PHE37      -0.2867
     31  CB         3.8440   -0.4720   10.3730 C.3    37  PHE37       0.0534
     32  CG         4.0690   -0.7930   11.8130 C.ar   37  PHE37      -0.0203
     33  CD1        4.4530    0.1960   12.7060 C.ar   37  PHE37      -0.0042
     34  CD2        3.9440   -2.1000   12.2650 C.ar   37  PHE37      -0.0042
     35  CE1        4.7140   -0.1180   14.0460 C.ar   37  PHE37      -0.0003
     36  CE2        4.2000   -2.4280   13.5950 C.ar   37  PHE37      -0.0003
     37  CZ         4.5870   -1.4310   14.4860 C.ar   37  PHE37      -0.0000
     38  N          8.6270   -4.6670   13.9330 N.3    78  TRP78      -0.1227
     39  CA         9.6330   -5.7220   13.9290 C.3    78  TRP78       0.1737
     40  C          9.9990   -6.2870   12.5580 C.2    78  TRP78       0.2595
     41  O         11.1780   -6.3280   12.1840 O.2    78  TRP78      -0.2718
     42  CB         9.1890   -6.8550   14.8500 C.3    78  TRP78       0.0564
     43  CG        10.2250   -7.9060   15.0240 C.ar   78  TRP78       0.0003
     44  CD1       10.3660   -9.0530   14.2950 C.ar   78  TRP78       0.0946
     45  CD2       11.2630   -7.9230   16.0060 C.ar   78  TRP78       0.0152
     46  NE1       11.4240   -9.7850   14.7690 N.ar   78  TRP78      -0.2442
     47  CE2       11.9950   -9.1150   15.8190 C.ar   78  TRP78       0.0810
     48  CE3       11.6440   -7.0480   17.0300 C.ar   78  TRP78       0.0012
     49  CZ2       13.0850   -9.4570   16.6200 C.ar   78  TRP78       0.0191
     50  CZ3       12.7300   -7.3870   17.8290 C.ar   78  TRP78       0.0001
     51  CH2       13.4370   -8.5830   17.6180 C.ar   78  TRP78       0.0015
     52  N          8.9920   -6.7260   11.8170 N.am   79  ASN79      -0.1974
     53  CA         9.2020   -7.3100   10.4970 C.3    79  ASN79       0.1688
     54  C          9.8970   -6.3780    9.5060 C.2    79  ASN79       0.2292
     55  O         10.5920   -6.8400    8.6000 O.2    79  ASN79      -0.2864
     56  CB         7.8610   -7.7740    9.9250 C.3    79  ASN79       0.1181
     57  CG         7.3270   -9.0070   10.6260 C.2    79  ASN79       0.2629
     58  OD1        6.1690   -9.3870   10.4440 O.2    79  ASN79      -0.2716
     59  ND2        8.1730   -9.6480   11.4220 N.am   79  ASN79      -0.0877
     60  N          9.0430    3.9500   14.6580 N.3   117  ASP117     -0.1239
     61  CA         9.0530    2.6510   15.3330 C.3   117  ASP117      0.1674
     62  C         10.1840    1.7580   14.8380 C.2   117  ASP117      0.2266
     63  O          9.9760    0.6000   14.4840 O.2   117  ASP117     -0.2867
     64  CB         7.7090    1.9400   15.1350 C.3   117  ASP117      0.1410
     65  CG         6.5600    2.6670   15.8060 C.2   117  ASP117      0.3668
     66  OD1        6.4130    3.8840   15.5800 O.co2 117  ASP117     -0.2456
     67  OD2        5.7970    2.0210   16.5510 O.co2 117  ASP117     -0.2456
     68  N         13.0050   -0.6630   15.2060 N.3   119  GLU119     -0.1231
     69  CA        13.3370   -1.6590   16.2170 C.3   119  GLU119      0.1699
     70  C         14.6190   -2.4180   15.8580 C.2   119  GLU119      0.2592
     71  O         14.5490   -3.4830   15.2480 O.2   119  GLU119     -0.2718
     72  CB        12.1560   -2.6350   16.3920 C.3   119  GLU119      0.0402
     73  CG        10.8650   -1.9330   16.8560 C.3   119  GLU119      0.1161
     74  CD         9.6560   -2.8570   17.0030 C.2   119  GLU119      0.3649
     75  OE1        9.7670   -4.0730   16.7560 O.co2 119  GLU119     -0.2457
     76  OE2        8.5750   -2.3510   17.3750 O.co2 119  GLU119     -0.2457
     77  N         15.7950   -1.8880   16.2150 N.am  120  TYR120     -0.1976
     78  CA        15.9660   -0.6260   16.9470 C.3   120  TYR120      0.1639
     79  C         17.2950   -0.0460   16.4910 C.2   120  TYR120      0.2290
     80  O         18.1460   -0.7710   15.9820 O.2   120  TYR120     -0.2864
     81  CB        16.1200   -0.8670   18.4460 C.3   120  TYR120      0.0560
     82  CG        15.1050   -1.7910   19.0580 C.ar  120  TYR120     -0.0198
     83  CD1       13.9860   -1.2870   19.7230 C.ar  120  TYR120     -0.0009
     84  CD2       15.2610   -3.1720   18.9760 C.ar  120  TYR120     -0.0009
     85  CE1       13.0480   -2.1450   20.2960 C.ar  120  TYR120      0.0417
     86  CE2       14.3240   -4.0370   19.5410 C.ar  120  TYR120      0.0417
     87  CZ        13.2230   -3.5150   20.1980 C.ar  120  TYR120      0.1957
     88  OH        12.2930   -4.3650   20.7600 O.3   120  TYR120     -0.2866
     89  N         19.5170   -5.3270   16.7100 N.3   124  GLN124     -0.1245
     90  CA        18.8930   -6.1270   15.6640 C.3   124  GLN124      0.1566
     91  C         19.5630   -5.9460   14.3070 C.2   124  GLN124      0.2260
     92  O         18.8920   -5.8990   13.2740 O.2   124  GLN124     -0.2867
     93  CB        17.4040   -5.7770   15.5550 C.3   124  GLN124      0.0367
     94  CG        16.5640   -6.3670   16.6740 C.3   124  GLN124      0.0905
     95  CD        16.6010   -7.8810   16.6660 C.2   124  GLN124      0.2608
     96  OE1       16.3070   -8.5110   15.6510 O.2   124  GLN124     -0.2717
     97  NE2       16.9560   -8.4730   17.7960 N.am  124  GLN124     -0.0878
     98  N          8.2430    5.2810   19.2700 N.3   162  ALA162     -0.1245
     99  CA         7.9280    4.1600   20.1450 C.3   162  ALA162      0.1562
    100  C          9.3150    3.6790   20.5400 C.2   162  ALA162      0.2260
    101  O         10.0980    3.2490   19.6840 O.2   162  ALA162     -0.2867
    102  CB         7.1700    3.0780   19.3690 C.3   162  ALA162      0.0290
    103  N         18.7810   -2.0360   25.1780 N.3   169  TYR169     -0.1241
    104  CA        18.3560   -1.3720   23.9500 C.3   169  TYR169      0.1605
    105  C         18.5080    0.1450   24.0400 C.2   169  TYR169      0.2264
    106  O         18.9420    0.7990   23.0860 O.2   169  TYR169     -0.2867
    107  CB        16.8920   -1.6980   23.6520 C.3   169  TYR169      0.0534
    108  CG        16.6400   -3.1210   23.2100 C.ar  169  TYR169     -0.0201
    109  CD1       15.5740   -3.8540   23.7320 C.ar  169  TYR169     -0.0009
    110  CD2       17.4450   -3.7260   22.2490 C.ar  169  TYR169     -0.0009
    111  CE1       15.3190   -5.1570   23.3060 C.ar  169  TYR169      0.0417
    112  CE2       17.2000   -5.0270   21.8160 C.ar  169  TYR169      0.0417
    113  CZ        16.1380   -5.7360   22.3480 C.ar  169  TYR169      0.1957
    114  OH        15.9040   -7.0300   21.9240 O.3   169  TYR169     -0.2866
    115  N          7.3990    1.7670   25.3450 N.3   189  MET189     -0.1245
    116  CA         6.8720    0.4230   25.2140 C.3   189  MET189      0.1570
    117  C          7.1580   -0.3290   26.5100 C.2   189  MET189      0.2261
    118  O          8.0510   -1.1750   26.5790 O.2   189  MET189     -0.2867
    119  CB         7.5120   -0.2700   24.0060 C.3   189  MET189      0.0387
    120  CG         7.1680    0.4190   22.6800 C.3   189  MET189      0.0595
    121  SD         7.7130   -0.5110   21.2330 S.3   189  MET189     -0.1393
    122  CE         9.4910   -0.2180   21.2850 C.3   189  MET189      0.0692
    123  N          6.3100   -2.8560   28.0350 N.3   191  TYR191     -0.1227
    124  CA         5.7800   -4.2000   27.9310 C.3   191  TYR191      0.1736
    125  C          6.7810   -5.0260   27.1230 C.2   191  TYR191      0.2595
    126  O          7.8330   -4.5110   26.7380 O.2   191  TYR191     -0.2718
    127  CB         4.3830   -4.1850   27.2910 C.3   191  TYR191      0.0548
    128  CG         4.1740   -3.1580   26.1950 C.ar  191  TYR191     -0.0200
    129  CD1        4.8770   -3.2370   24.9930 C.ar  191  TYR191     -0.0009
    130  CD2        3.2330   -2.1350   26.3440 C.ar  191  TYR191     -0.0009
    131  CE1        4.6450   -2.3290   23.9590 C.ar  191  TYR191      0.0417
    132  CE2        2.9890   -1.2180   25.3050 C.ar  191  TYR191      0.0417
    133  CZ         3.6980   -1.3270   24.1220 C.ar  191  TYR191      0.1957
    134  OH         3.4520   -0.4480   23.0890 O.3   191  TYR191     -0.2866
    135  N          6.4620   -6.2940   26.8850 N.am  192  ASP192     -0.1974
    136  CA         7.3610   -7.2040   26.1720 C.3   192  ASP192      0.1709
    137  C          8.6470   -7.3830   26.9850 C.2   192  ASP192      0.2293
    138  O          9.7170   -7.6750   26.4380 O.2   192  ASP192     -0.2864
    139  CB         7.6790   -6.6720   24.7650 C.3   192  ASP192      0.1436
    140  CG         6.4350   -6.4890   23.9150 C.2   192  ASP192      0.3671
    141  OD1        5.4920   -7.2830   24.0830 O.co2 192  ASP192     -0.2456
    142  OD2        6.3970   -5.5600   23.0700 O.co2 192  ASP192     -0.2456
    143  N         10.7740  -16.1650   24.2730 N.3   197  TRP197     -0.1241
    144  CA        12.1490  -16.2780   23.8200 C.3   197  TRP197      0.1605
    145  C         12.9770  -16.6700   25.0540 C.2   197  TRP197      0.2264
    146  O         14.1360  -17.0770   24.9360 O.2   197  TRP197     -0.2867
    147  CB        12.6300  -14.9500   23.2190 C.3   197  TRP197      0.0550
    148  CG        12.2660  -13.7340   24.0220 C.ar  197  TRP197      0.0003
    149  CD1       12.9500  -13.2080   25.0790 C.ar  197  TRP197      0.0946
    150  CD2       11.1210  -12.8950   23.8240 C.ar  197  TRP197      0.0152
    151  NE1       12.3020  -12.0870   25.5490 N.ar  197  TRP197     -0.2442
    152  CE2       11.1760  -11.8750   24.7960 C.ar  197  TRP197      0.0810
    153  CE3       10.0530  -12.9090   22.9150 C.ar  197  TRP197      0.0012
    154  CZ2       10.2010  -10.8700   24.8880 C.ar  197  TRP197      0.0191
    155  CZ3        9.0810  -11.9080   23.0070 C.ar  197  TRP197      0.0001
    156  CH2        9.1670  -10.9050   23.9880 C.ar  197  TRP197      0.0015
    157  N         -2.7260   -7.2480   25.6170 N.3   246  TYR246     -0.1241
    158  CA        -2.4290   -8.6270   25.2490 C.3   246  TYR246      0.1605
    159  C         -1.4720   -9.1800   26.2990 C.2   246  TYR246      0.2264
    160  O         -0.9140   -8.4280   27.1050 O.2   246  TYR246     -0.2867
    161  CB        -1.7560   -8.6770   23.8720 C.3   246  TYR246      0.0534
    162  CG        -0.4220   -7.9570   23.8290 C.ar  246  TYR246     -0.0201
    163  CD1        0.7780   -8.6460   24.0310 C.ar  246  TYR246     -0.0009
    164  CD2       -0.3670   -6.5780   23.6460 C.ar  246  TYR246     -0.0009
    165  CE1        1.9970   -7.9710   24.0540 C.ar  246  TYR246      0.0417
    166  CE2        0.8420   -5.8940   23.6720 C.ar  246  TYR246      0.0417
    167  CZ         2.0190   -6.5910   23.8790 C.ar  246  TYR246      0.1957
    168  OH         3.2090   -5.9000   23.9420 O.3   246  TYR246     -0.2866
    169  N          1.6210  -12.4920   27.1560 N.3   248  ARG248     -0.1245
    170  CA         2.5880  -13.3640   26.5080 C.3   248  ARG248      0.1563
    171  C          2.4920  -14.7300   27.1620 C.2   248  ARG248      0.2260
    172  O          2.4450  -14.8500   28.3900 O.2   248  ARG248     -0.2867
    173  CB         3.9950  -12.7590   26.5830 C.3   248  ARG248      0.0307
    174  CG         4.0900  -11.5630   25.6300 C.3   248  ARG248      0.0489
    175  CD         5.5020  -11.0830   25.3440 C.3   248  ARG248      0.2205
    176  NE         5.4630  -10.0740   24.2860 N.pl3 248  ARG248     -0.0865
    177  CZ         5.4080  -10.3440   22.9830 C.cat 248  ARG248      0.5346
    178  NH1        5.4050  -11.6000   22.5480 N.pl3 248  ARG248      0.1354
    179  NH2        5.3080   -9.3490   22.1070 N.pl3 248  ARG248      0.1354
    180  N         -0.7050  -16.4260   16.8210 N.3   276  GLU276     -0.1231
    181  CA         0.7120  -16.1110   16.9710 C.3   276  GLU276      0.1699
    182  C          1.1940  -16.7140   18.2820 C.2   276  GLU276      0.2592
    183  O          0.9630  -16.1580   19.3630 O.2   276  GLU276     -0.2718
    184  CB         0.9260  -14.5920   16.9820 C.3   276  GLU276      0.0402
    185  CG         0.6580  -13.9070   15.6490 C.3   276  GLU276      0.1161
    186  CD         1.7600  -14.1390   14.6270 C.2   276  GLU276      0.3649
    187  OE1        1.6140  -13.6850   13.4740 O.co2 276  GLU276     -0.2457
    188  OE2        2.7760  -14.7720   14.9700 O.co2 276  GLU276     -0.2457
    189  N          1.8470  -17.8670   18.1910 N.am  277  GLY277     -0.1957
    190  CA         2.3360  -18.5200   19.3900 C.3   277  GLY277      0.1869
    191  C          3.1810  -17.5660   20.2110 C.2   277  GLY277      0.2309
    192  O          3.9990  -16.8420   19.6580 O.2   277  GLY277     -0.2863
    193  N          1.8370  -15.1930   22.2410 N.3   279  MET279     -0.1245
    194  CA         1.0080  -14.0760   22.6830 C.3   279  MET279      0.1570
    195  C         -0.4670  -14.4210   22.5290 C.2   279  MET279      0.2261
    196  O         -0.8240  -15.3640   21.8170 O.2   279  MET279     -0.2867
    197  CB         1.3440  -12.7950   21.9000 C.3   279  MET279      0.0387
    198  CG         0.9720  -12.7800   20.4090 C.3   279  MET279      0.0595
    199  SD        -0.7830  -12.4720   20.0510 S.3   279  MET279     -0.1393
    200  CE        -1.0480  -10.8340   20.7820 C.3   279  MET279      0.0692
    201  N         -0.3190    5.0850   26.7600 N.3   335  MET335     -0.1245
    202  CA        -0.2770    4.6790   25.3580 C.3   335  MET335      0.1570
    203  C         -0.6970    3.2230   25.3890 C.2   335  MET335      0.2261
    204  O         -0.4920    2.5450   26.3940 O.2   335  MET335     -0.2867
    205  CB         1.1410    4.8340   24.7890 C.3   335  MET335      0.0387
    206  CG         1.3660    4.1980   23.4040 C.3   335  MET335      0.0595
    207  SD         1.8040    2.4270   23.5100 S.3   335  MET335     -0.1393
    208  CE         3.5880    2.5540   23.8030 C.3   335  MET335      0.0692
    209  N         -1.0750   -0.6230   23.1200 N.3   337  TRP337     -0.1241
    210  CA        -0.9440   -1.5040   21.9690 C.3   337  TRP337      0.1605
    211  C         -1.8110   -2.7030   22.3610 C.2   337  TRP337      0.2264
    212  O         -1.4690   -3.4040   23.3090 O.2   337  TRP337     -0.2867
    213  CB         0.5070   -1.9710   21.7790 C.3   337  TRP337      0.0550
    214  CG         0.6610   -2.8380   20.5570 C.ar  337  TRP337      0.0003
    215  CD1        0.2930   -4.1550   20.4230 C.ar  337  TRP337      0.0946
    216  CD2        1.0980   -2.4130   19.2610 C.ar  337  TRP337      0.0152
    217  NE1        0.4660   -4.5660   19.1200 N.ar  337  TRP337     -0.2442
    218  CE2        0.9580   -3.5150   18.3870 C.ar  337  TRP337      0.0810
    219  CE3        1.5890   -1.2040   18.7520 C.ar  337  TRP337      0.0012
    220  CZ2        1.2930   -3.4430   17.0290 C.ar  337  TRP337      0.0191
    221  CZ3        1.9220   -1.1310   17.3990 C.ar  337  TRP337      0.0001
    222  CH2        1.7730   -2.2440   16.5560 C.ar  337  TRP337      0.0015
    223  N         -6.6760   -5.6490   20.0180 N.3   341  LEU341     -0.1245
    224  CA        -6.3950   -6.7480   20.9420 C.3   341  LEU341      0.1561
    225  C         -7.2420   -6.6620   22.2100 C.2   341  LEU341      0.2260
    226  O         -7.3690   -7.6330   22.9530 O.2   341  LEU341     -0.2867
    227  CB        -4.9060   -6.7840   21.2920 C.3   341  LEU341      0.0270
    228  CG        -3.9880   -6.9550   20.0780 C.3   341  LEU341      0.0019
    229  CD1       -2.5330   -6.8220   20.5180 C.3   341  LEU341      0.0001
    230  CD2       -4.2250   -8.3060   19.4240 C.3   341  LEU341      0.0001
@<TRIPOS>BOND
     1    30    29    2
     2    55    54    2
     3    29    28    1
     4    14    17    1
     5    14    13    1
     6    14    15    1
     7    54    53    1
     8    17    18    1
     9    56    53    1
    10    56    57    1
    11    16    15    2
    12    28    27    1
    13    28    31    1
    14    31    32    1
    15    58    57    2
    16    53    52    1
    17    57    59   am
    18    18    20   ar
    19    18    19   ar
    20    23    20   ar
    21    23    25   ar
    22    20    22   ar
    23    32    34   ar
    24    32    33   ar
    25    52    40   am
    26    19    21   ar
    27    25    26   ar
    28    41    40    2
    29    34    36   ar
    30    40    39    1
    31    33    35   ar
    32    22    21   ar
    33    22    24   ar
    34    92    91    2
    35    26    24   ar
    36   187   186   ar
    37    36    37   ar
    38    39    38    1
    39    39    42    1
    40    35    37   ar
    41    44    46   ar
    42    44    43   ar
    43    91    90    1
    44    63    62    2
    45   186   188   ar
    46   186   185    1
    47    60    61    1
    48    46    47   ar
    49    62    61    1
    50    42    43    1
    51    43    45   ar
    52    64    61    1
    53    64    65    1
    54    68    69    1
    55    71    70    2
    56    93    90    1
    57    93    94    1
    58    66    65   ar
    59   185   184    1
    60    96    95    2
    61    90    89    1
    62    65    67   ar
    63    47    45   ar
    64    47    49   ar
    65    70    77   am
    66    70    69    1
    67    80    79    2
    68    45    48   ar
    69    77    78    1
    70    69    72    1
    71    72    73    1
    72    79    78    1
    73   222   220   ar
    74   222   221   ar
    75    49    51   ar
    76    95    94    1
    77    95    97   am
    78    75    74   ar
    79   180   181    1
    80    73    74    1
    81    78    81    1
    82   181   184    1
    83   181   182    1
    84    74    76   ar
    85   220   218   ar
    86    48    50   ar
    87   221   219   ar
    88     3     4    2
    89     3     2    1
    90     7     9   ar
    91     7     6   ar
    92    51    50   ar
    93     9    11   ar
    94   189   182   am
    95   189   190    1
    96     2     5    1
    97     2     1    1
    98   182   183    2
    99   218   217   ar
   100   218   216   ar
   101    81    82    1
   102     5     6    1
   103     6     8   ar
   104   219   216   ar
   105    11    12    1
   106    11    10   ar
   107    84    82   ar
   108    84    86   ar
   109    82    83   ar
   110   217   215   ar
   111   216   214   ar
   112    98    99    1
   113   102    99    1
   114   190   191    1
   115   230   228    1
   116    86    87   ar
   117   192   191    2
   118   101   100    2
   119    83    85   ar
   120     8    10   ar
   121   223   224    1
   122   199   198    1
   123   199   200    1
   124   228   229    1
   125   228   227    1
   126    99   100    1
   127    87    85   ar
   128    87    88    1
   129   198   197    1
   130   215   214   ar
   131   214   213    1
   132   224   227    1
   133   224   225    1
   134   121   122    1
   135   121   120    1
   136   213   210    1
   137   112   110   ar
   138   112   113   ar
   139   196   195    2
   140   197   194    1
   141   114   113    1
   142   210   211    1
   143   210   209    1
   144   179   177    1
   145   225   226    2
   146   193   194    1
   147   110   108   ar
   148   113   111   ar
   149   211   212    2
   150   195   194    1
   151   178   177    1
   152   120   119    1
   153   153   155   ar
   154   153   150   ar
   155   177   176    2
   156   155   156   ar
   157   142   140   ar
   158   106   105    2
   159   134   133    1
   160   108   107    1
   161   108   109   ar
   162   147   144    1
   163   147   148    1
   164   111   109   ar
   165   206   207    1
   166   206   205    1
   167   207   208    1
   168   164   166   ar
   169   164   162   ar
   170   107   104    1
   171   166   167   ar
   172   144   143    1
   173   144   145    1
   174   150   148   ar
   175   150   152   ar
   176   162   161    1
   177   162   163   ar
   178   161   158    1
   179   167   168    1
   180   167   165   ar
   181   140   141   ar
   182   140   139    1
   183   104   105    1
   184   104   103    1
   185   131   133   ar
   186   131   129   ar
   187   156   154   ar
   188   119   116    1
   189   148   149   ar
   190   163   165   ar
   191   133   132   ar
   192   176   175    1
   193   139   136    1
   194   205   202    1
   195   152   154   ar
   196   152   151   ar
   197   146   145    2
   198   129   128   ar
   199   149   151   ar
   200   116   115    1
   201   116   117    1
   202   158   157    1
   203   158   159    1
   204   132   130   ar
   205   175   174    1
   206   202   203    1
   207   202   201    1
   208   203   204    2
   209   174   173    1
   210   136   135    1
   211   136   137    1
   212   128   130   ar
   213   128   127    1
   214   159   160    2
   215   138   137    2
   216   170   173    1
   217   170   169    1
   218   170   171    1
   219   117   118    2
   220   126   125    2
   221   135   125   am
   222   125   124    1
   223   171   172    2
   224   127   124    1
   225   124   123    1
