@<TRIPOS>MOLECULE
tmp/1waxA00.pdb
 104 99 0 0 0
SMALL
GASTEIGER

@<TRIPOS>ATOM
      1  N         49.3550    9.1480   67.8370 N.3    45  TYR45      -0.1241
      2  CA        48.2320    8.7180   68.6690 C.3    45  TYR45       0.1605
      3  C         48.1130    7.1550   68.5860 C.2    45  TYR45       0.2264
      4  O         48.1530    6.5560   67.5050 O.2    45  TYR45      -0.2867
      5  CB        46.9050    9.4200   68.2610 C.3    45  TYR45       0.0534
      6  CG        46.9340   10.9480   68.3290 C.ar   45  TYR45      -0.0201
      7  CD1       46.8700   11.6190   69.5460 C.ar   45  TYR45      -0.0009
      8  CD2       47.0460   11.7180   67.1750 C.ar   45  TYR45      -0.0009
      9  CE1       46.9330   13.0410   69.6110 C.ar   45  TYR45       0.0417
     10  CE2       47.1140   13.1250   67.2280 C.ar   45  TYR45       0.0417
     11  CZ        47.0520   13.7820   68.4460 C.ar   45  TYR45       0.1957
     12  OH        47.0960   15.1770   68.5010 O.3    45  TYR45      -0.2866
     13  N         45.4120    5.4420   69.1240 N.3    47  ASP47      -0.1225
     14  CA        44.1300    5.0520   68.5480 C.3    47  ASP47       0.1805
     15  C         43.9170    5.5660   67.1230 C.2    47  ASP47       0.2597
     16  O         42.8040    5.4660   66.5970 O.2    47  ASP47      -0.2718
     17  CB        42.9590    5.5130   69.4490 C.3    47  ASP47       0.1424
     18  CG        43.0510    6.9750   69.8320 C.2    47  ASP47       0.3668
     19  OD1       44.1800    7.5200   69.8400 O.co2  47  ASP47      -0.2456
     20  OD2       42.0490    7.6630   70.1490 O.co2  47  ASP47      -0.2456
     21  N         44.9560    6.1360   66.5090 N.am   48  VAL48      -0.1980
     22  CA        44.8800    6.5390   65.0920 C.3    48  VAL48       0.1595
     23  C         45.9750    5.8740   64.2700 C.2    48  VAL48       0.2287
     24  O         47.1660    6.2340   64.3420 O.2    48  VAL48      -0.2864
     25  CB        44.9550    8.0340   64.9260 C.3    48  VAL48       0.0276
     26  CG1       44.7920    8.4120   63.4500 C.3    48  VAL48       0.0022
     27  CG2       43.8950    8.7110   65.8280 C.3    48  VAL48       0.0022
     28  N         41.1890   22.3680   66.7890 N.3   180  ASP180     -0.1225
     29  CA        41.1040   20.9110   66.8770 C.3   180  ASP180      0.1805
     30  C         39.7560   20.4970   67.4630 C.2   180  ASP180      0.2597
     31  O         39.3100   21.0570   68.4710 O.2   180  ASP180     -0.2718
     32  CB        42.2460   20.3450   67.7410 C.3   180  ASP180      0.1424
     33  CG        42.5250   18.8620   67.4680 C.2   180  ASP180      0.3668
     34  OD1       41.7420   18.2110   66.7230 O.co2 180  ASP180     -0.2456
     35  OD2       43.5250   18.2720   67.9530 O.co2 180  ASP180     -0.2456
     36  N         39.1320   19.5140   66.8080 N.am  181  PHE181     -0.1976
     37  CA        37.7700   19.0320   67.1120 C.3   181  PHE181      0.1639
     38  C         36.7310   20.1180   66.9060 C.2   181  PHE181      0.2290
     39  O         35.5710   19.9540   67.3030 O.2   181  PHE181     -0.2864
     40  CB        37.6570   18.4150   68.5170 C.3   181  PHE181      0.0560
     41  CG        38.4630   17.1530   68.6850 C.ar  181  PHE181     -0.0200
     42  CD1       37.9660   15.9310   68.2350 C.ar  181  PHE181     -0.0042
     43  CD2       39.7260   17.1880   69.2770 C.ar  181  PHE181     -0.0042
     44  CE1       38.7140   14.7710   68.3770 C.ar  181  PHE181     -0.0003
     45  CE2       40.4740   16.0300   69.4230 C.ar  181  PHE181     -0.0003
     46  CZ        39.9730   14.8200   68.9720 C.ar  181  PHE181     -0.0000
     47  N         46.2750   17.1090   59.7310 N.3   214  CYS214     -0.1221
     48  CA        46.0040   17.9480   60.9070 C.3   214  CYS214      0.1808
     49  C         46.9160   17.3780   62.0010 C.2   214  CYS214      0.2602
     50  O         48.0970   17.1080   61.7270 O.2   214  CYS214     -0.2717
     51  CB        44.5220   17.9910   61.2350 C.3   214  CYS214      0.0970
     52  SG        43.7180   16.3710   61.1140 S.3   214  CYS214     -0.0800
     53  N         46.4320   17.1780   63.2140 N.am  215  SER215     -0.1938
     54  CA        47.2730   16.5600   64.2380 C.3   215  SER215      0.2055
     55  C         47.2850   15.0270   64.0150 C.2   215  SER215      0.2642
     56  O         48.3430   14.4300   63.8290 O.2   215  SER215     -0.2714
     57  CB        46.7590   16.9240   65.6340 C.3   215  SER215      0.2130
     58  OG        47.7380   16.6440   66.6160 O.3   215  SER215     -0.2179
     59  N         46.0890   14.4290   64.0030 N.am  216  ALA216     -0.1977
     60  CA        45.8780   12.9880   63.7670 C.3   216  ALA216      0.1597
     61  C         45.7470   12.5680   62.2840 C.2   216  ALA216      0.2287
     62  O         46.0140   11.4020   61.9230 O.2   216  ALA216     -0.2864
     63  CB        44.6260   12.5460   64.5320 C.3   216  ALA216      0.0319
     64  N         42.7120   12.9830   60.5930 N.3   218  ILE218     -0.1231
     65  CA        41.3540   12.4390   60.4010 C.3   218  ILE218      0.1692
     66  C         40.1920   13.4300   60.5700 C.2   218  ILE218      0.2593
     67  O         39.2250   13.3970   59.8000 O.2   218  ILE218     -0.2718
     68  CB        41.1030   11.1550   61.3060 C.3   218  ILE218      0.0266
     69  CG1       41.2230   11.4470   62.7970 C.3   218  ILE218      0.0019
     70  CG2       42.0780   10.0410   60.9740 C.3   218  ILE218      0.0020
     71  CD1       41.0610   10.1760   63.6760 C.3   218  ILE218      0.0001
     72  N         40.2470   14.2770   61.5780 N.am  219  GLY219     -0.1942
     73  CA        39.0890   15.1140   61.8750 C.3   219  GLY219      0.2014
     74  C         38.9560   16.2080   60.8290 C.2   219  GLY219      0.2638
     75  O         38.0390   16.1830   59.9910 O.2   219  GLY219     -0.2714
     76  N         39.8970   17.1590   60.8820 N.am  220  ARG220     -0.1977
     77  CA        39.9140   18.3310   60.0050 C.3   220  ARG220      0.1597
     78  C         40.3230   17.9730   58.5630 C.2   220  ARG220      0.2287
     79  O         39.8010   18.5210   57.5940 O.2   220  ARG220     -0.2864
     80  CB        40.8560   19.3800   60.6160 C.3   220  ARG220      0.0334
     81  CG        40.2910   19.9470   61.9300 C.3   220  ARG220      0.0492
     82  CD        41.1650   20.9370   62.6550 C.3   220  ARG220      0.2205
     83  NE        42.2150   20.2240   63.3630 N.pl3 220  ARG220     -0.0865
     84  CZ        43.1300   20.7950   64.1270 C.cat 220  ARG220      0.5346
     85  NH1       43.1180   22.1220   64.2750 N.pl3 220  ARG220      0.1354
     86  NH2       44.0690   20.0300   64.7270 N.pl3 220  ARG220      0.1354
     87  N         35.5500   13.7510   62.9500 N.3   261  GLN261     -0.1245
     88  CA        35.7250   13.3480   64.3410 C.3   261  GLN261      0.1566
     89  C         34.5630   13.7630   65.2390 C.2   261  GLN261      0.2260
     90  O         34.4320   13.2210   66.3230 O.2   261  GLN261     -0.2867
     91  CB        37.0280   13.9280   64.8970 C.3   261  GLN261      0.0367
     92  CG        38.2480   13.1000   64.5810 C.3   261  GLN261      0.0905
     93  CD        38.2300   11.7800   65.3100 C.2   261  GLN261      0.2608
     94  OE1       38.5810   11.7040   66.4840 O.2   261  GLN261     -0.2717
     95  NE2       37.8580   10.7320   64.6080 N.am  261  GLN261     -0.0878
     96  N         31.5430   18.6890   62.9310 N.3   265  GLN265     -0.1245
     97  CA        32.3560   18.5790   61.7110 C.3   265  GLN265      0.1566
     98  C         31.5240   17.9800   60.5490 C.2   265  GLN265      0.2260
     99  O         31.6180   18.4400   59.4150 O.2   265  GLN265     -0.2867
    100  CB        33.6380   17.7570   61.9660 C.3   265  GLN265      0.0367
    101  CG        34.7080   18.5460   62.7160 C.3   265  GLN265      0.0905
    102  CD        35.9930   17.7740   62.9860 C.2   265  GLN265      0.2608
    103  OE1       36.0970   16.5820   62.6780 O.2   265  GLN265     -0.2717
    104  NE2       36.9870   18.4650   63.5760 N.am  265  GLN265     -0.0878
@<TRIPOS>BOND
     1    79    78    2
     2    78    77    1
     3    99    98    2
     4    47    48    1
     5    67    66    2
     6    75    74    2
     7    77    80    1
     8    77    76    1
     9    65    66    1
    10    65    64    1
    11    65    68    1
    12    98    97    1
    13    66    72   am
    14    80    81    1
    15    74    76   am
    16    74    73    1
    17    48    51    1
    18    48    49    1
    19    70    68    1
    20    52    51    1
    21    68    69    1
    22    72    73    1
    23    97   100    1
    24    97    96    1
    25    50    49    2
    26    62    61    2
    27    81    82    1
    28   100   101    1
    29    49    53   am
    30    61    60    1
    31    82    83    1
    32   103   102    2
    33   101   102    1
    34    69    71    1
    35    87    88    1
    36   102   104   am
    37    53    54    1
    38    83    84    2
    39    26    25    1
    40    60    59    1
    41    60    63    1
    42    56    55    2
    43    59    55   am
    44    55    54    1
    45    84    85    1
    46    84    86    1
    47    54    57    1
    48    23    24    2
    49    23    22    1
    50    88    91    1
    51    88    89    1
    52    92    91    1
    53    92    93    1
    54    95    93   am
    55    25    22    1
    56    25    27    1
    57    22    21    1
    58    89    90    2
    59    93    94    2
    60    57    58    1
    61    21    15   am
    62    16    15    2
    63    34    33   ar
    64    28    29    1
    65    36    37    1
    66    36    30   am
    67    29    30    1
    68    29    32    1
    69    38    37    1
    70    38    39    2
    71    37    40    1
    72    15    14    1
    73     8    10   ar
    74     8     6   ar
    75    10    11   ar
    76    30    31    2
    77    33    32    1
    78    33    35   ar
    79     4     3    2
    80     1     2    1
    81    42    44   ar
    82    42    41   ar
    83     5     6    1
    84     5     2    1
    85     6     7   ar
    86    44    46   ar
    87    11    12    1
    88    11     9   ar
    89    40    41    1
    90    14    13    1
    91    14    17    1
    92     3     2    1
    93    41    43   ar
    94    46    45   ar
    95    43    45   ar
    96    17    18    1
    97     7     9   ar
    98    18    19   ar
    99    18    20   ar
