@<TRIPOS>MOLECULE
tmp/1wayB01.pdb
 136 135 0 0 0
SMALL
GASTEIGER

@<TRIPOS>ATOM
      1  N         -3.6440   17.0660   56.1590 N.3    50  TRP50      -0.1241
      2  CA        -2.7770   16.7280   57.2900 C.3    50  TRP50       0.1605
      3  C         -3.3220   17.2090   58.6310 C.2    50  TRP50       0.2264
      4  O         -2.5720   17.2880   59.5910 O.2    50  TRP50      -0.2867
      5  CB        -1.3750   17.3210   57.0930 C.3    50  TRP50       0.0550
      6  CG        -0.6460   16.7570   55.9260 C.ar   50  TRP50       0.0003
      7  CD1       -1.0400   15.7310   55.1200 C.ar   50  TRP50       0.0946
      8  CD2        0.6460   17.1470   55.4710 C.ar   50  TRP50       0.0152
      9  NE1       -0.0830   15.4780   54.1710 N.ar   50  TRP50      -0.2442
     10  CE2        0.9690   16.3340   54.3690 C.ar   50  TRP50       0.0810
     11  CE3        1.5690   18.1190   55.8790 C.ar   50  TRP50       0.0012
     12  CZ2        2.1610   16.4690   53.6640 C.ar   50  TRP50       0.0191
     13  CZ3        2.7540   18.2420   55.1930 C.ar   50  TRP50       0.0001
     14  CH2        3.0400   17.4340   54.0900 C.ar   50  TRP50       0.0015
     15  N         17.3420   16.5820   51.4970 N.3   146  GLU146     -0.1245
     16  CA        16.0400   15.9290   51.4250 C.3   146  GLU146      0.1567
     17  C         15.8690   14.8600   52.5150 C.2   146  GLU146      0.2260
     18  O         16.8390   14.1610   52.8360 O.2   146  GLU146     -0.2867
     19  CB        15.8380   15.2880   50.0460 C.3   146  GLU146      0.0388
     20  CG        14.4020   14.8840   49.8120 C.3   146  GLU146      0.1160
     21  CD        14.1800   14.2200   48.4830 C.2   146  GLU146      0.3649
     22  OE1       14.6930   14.7000   47.4670 O.co2 146  GLU146     -0.2457
     23  OE2       13.4440   13.2240   48.4560 O.co2 146  GLU146     -0.2457
     24  N         18.0980   24.4450   46.0940 N.3   191  ASP191     -0.1225
     25  CA        16.6460   24.3610   46.2120 C.3   191  ASP191      0.1805
     26  C         16.2690   24.7540   47.6490 C.2   191  ASP191      0.2598
     27  O         17.1270   24.8210   48.5510 O.2   191  ASP191     -0.2718
     28  CB        16.1740   22.9320   45.8690 C.3   191  ASP191      0.1424
     29  CG        14.6900   22.8270   45.4970 C.2   191  ASP191      0.3668
     30  OD1       13.9760   23.8500   45.3500 O.co2 191  ASP191     -0.2456
     31  OD2       14.1690   21.6810   45.3290 O.co2 191  ASP191     -0.2456
     32  N         15.0000   25.0830   47.8310 N.am  192  ALA192     -0.1966
     33  CA        14.3870   25.0710   49.1400 C.3   192  ALA192      0.1728
     34  C         14.1140   23.6440   49.5730 C.2   192  ALA192      0.2616
     35  O         14.1260   22.7280   48.7660 O.2   192  ALA192     -0.2715
     36  CB        13.0880   25.8520   49.1190 C.3   192  ALA192      0.0334
     37  N         13.8320   23.4770   50.8570 N.am  193  CYS193     -0.1954
     38  CA        13.4790   22.1760   51.4020 C.3   193  CYS193      0.1843
     39  C         12.5780   22.3540   52.6140 C.2   193  CYS193      0.2625
     40  O         12.1130   23.4670   52.9240 O.2   193  CYS193     -0.2714
     41  CB        14.7600   21.3950   51.7410 C.3   193  CYS193      0.0997
     42  SG        14.5590   19.5790   51.7980 S.3   193  CYS193     -0.0797
     43  N         12.2790   21.2370   53.2540 N.am  194  GLU194     -0.1977
     44  CA        11.3340   21.1690   54.3540 C.3   194  GLU194      0.1602
     45  C         11.6670   22.2230   55.3810 C.2   194  GLU194      0.2287
     46  O         12.7900   22.2180   55.9090 O.2   194  GLU194     -0.2864
     47  CB        11.4070   19.7570   54.9620 C.3   194  GLU194      0.0415
     48  CG        10.4860   19.5040   56.1160 C.3   194  GLU194      0.1163
     49  CD         9.0380   19.5740   55.7350 C.2   194  GLU194      0.3649
     50  OE1        8.2410   19.9090   56.6300 O.co2 194  GLU194     -0.2457
     51  OE2        8.7000   19.3060   54.5540 O.co2 194  GLU194     -0.2457
     52  N          9.3140   26.5700   53.3250 N.3   197  SER197     -0.1217
     53  CA         8.1060   27.0200   52.6440 C.3   197  SER197      0.1889
     54  C          7.4790   28.1910   53.4150 C.2   197  SER197      0.2288
     55  O          7.6200   28.3340   54.6420 O.2   197  SER197     -0.2866
     56  CB         7.1160   25.8580   52.3630 C.3   197  SER197      0.2089
     57  OG         6.3770   25.5690   53.5030 O.3   197  SER197     -0.2183
     58  N          7.8560   30.6350   48.5450 N.3   217  VAL217     -0.1231
     59  CA         8.2490   29.2400   48.5020 C.3   217  VAL217      0.1692
     60  C          6.9910   28.4240   48.7650 C.2   217  VAL217      0.2593
     61  O          6.4240   28.5150   49.8420 O.2   217  VAL217     -0.2718
     62  CB         9.3360   28.9030   49.5870 C.3   217  VAL217      0.0266
     63  CG1        9.7400   27.4050   49.4870 C.3   217  VAL217      0.0020
     64  CG2       10.5810   29.7680   49.4540 C.3   217  VAL217      0.0020
     65  N          6.5350   27.6600   47.7810 N.am  218  SER218     -0.1938
     66  CA         5.2260   27.0160   47.8490 C.3   218  SER218      0.2055
     67  C          5.3220   25.4970   47.9160 C.2   218  SER218      0.2643
     68  O          4.8910   24.9080   48.8850 O.2   218  SER218     -0.2714
     69  CB         4.3740   27.4490   46.6630 C.3   218  SER218      0.2130
     70  OG         3.1150   26.8210   46.6500 O.3   218  SER218     -0.2179
     71  N          5.8810   24.8530   46.9020 N.am  219  TRP219     -0.1959
     72  CA         6.0170   23.3990   46.9400 C.3   219  TRP219      0.1771
     73  C          7.0870   22.8340   46.0000 C.2   219  TRP219      0.2620
     74  O          7.5520   23.4910   45.0570 O.2   219  TRP219     -0.2715
     75  CB         4.6460   22.7200   46.6280 C.3   219  TRP219      0.0590
     76  CG         4.0980   23.0290   45.2710 C.ar  219  TRP219      0.0006
     77  CD1        3.3860   24.1260   44.8890 C.ar  219  TRP219      0.0946
     78  CD2        4.2410   22.2270   44.1090 C.ar  219  TRP219      0.0152
     79  NE1        3.1040   24.0650   43.5460 N.ar  219  TRP219     -0.2442
     80  CE2        3.6090   22.8970   43.0460 C.ar  219  TRP219      0.0810
     81  CE3        4.8630   21.0000   43.8480 C.ar  219  TRP219      0.0012
     82  CZ2        3.5680   22.3700   41.7420 C.ar  219  TRP219      0.0191
     83  CZ3        4.8230   20.4890   42.5630 C.ar  219  TRP219      0.0001
     84  CH2        4.1850   21.1730   41.5340 C.ar  219  TRP219      0.0015
     85  N          7.4330   21.5760   46.2600 N.am  220  GLY220     -0.1954
     86  CA         8.3540   20.8100   45.4320 C.3   220  GLY220      0.1869
     87  C          8.1660   19.3120   45.6180 C.2   220  GLY220      0.2309
     88  O          7.5460   18.9010   46.5730 O.2   220  GLY220     -0.2863
     89  N         10.5450   16.4160   46.3660 N.3   222  GLY222     -0.1210
     90  CA        11.9040   16.2550   46.8470 C.3   222  GLY222      0.1956
     91  C         12.5250   17.6090   47.0310 C.2   222  GLY222      0.2612
     92  O         11.8340   18.5970   46.9920 O.2   222  GLY222     -0.2717
     93  N         13.8260   17.6140   47.2800 N.am  223  CYS223     -0.1970
     94  CA        14.6230   18.8130   47.3850 C.3   223  CYS223      0.1712
     95  C         15.8770   18.6030   46.5650 C.2   223  CYS223      0.2296
     96  O         16.5570   17.5750   46.6970 O.2   223  CYS223     -0.2864
     97  CB        15.0220   19.0950   48.8140 C.3   223  CYS223      0.0983
     98  SG        13.7090   19.1030   50.0080 S.3   223  CYS223     -0.0798
     99  N         16.4010   17.7730   43.5100 N.3   225  ARG225     -0.1245
    100  CA        16.4620   16.6190   42.6040 C.3   225  ARG225      0.1563
    101  C         16.7420   17.0580   41.1780 C.2   225  ARG225      0.2260
    102  O         16.1870   18.0460   40.7100 O.2   225  ARG225     -0.2867
    103  CB        15.1470   15.8370   42.6290 C.3   225  ARG225      0.0307
    104  CG        14.8930   15.1140   43.9390 C.3   225  ARG225      0.0489
    105  CD        13.8240   14.0640   43.8180 C.3   225  ARG225      0.2205
    106  NE        13.2340   13.6450   45.0870 N.pl3 225  ARG225     -0.0865
    107  CZ        12.0120   13.1110   45.2000 C.cat 225  ARG225      0.5346
    108  NH1       11.2470   12.9030   44.1330 N.pl3 225  ARG225      0.1354
    109  NH2       11.5460   12.7810   46.3940 N.pl3 225  ARG225      0.1354
    110  N         11.6700   23.8910   42.1270 N.3   230  GLY230     -0.1210
    111  CA        10.8430   24.3830   43.1880 C.3   230  GLY230      0.1956
    112  C          9.7830   25.2490   42.5730 C.2   230  GLY230      0.2612
    113  O         10.0110   25.9010   41.5480 O.2   230  GLY230     -0.2717
    114  N          8.6100   25.2290   43.1830 N.am  231  PHE231     -0.1962
    115  CA         7.4910   26.0270   42.7160 C.3   231  PHE231      0.1771
    116  C          7.1790   27.0890   43.7320 C.2   231  PHE231      0.2619
    117  O          7.1960   26.8460   44.9520 O.2   231  PHE231     -0.2715
    118  CB         6.2610   25.1520   42.3790 C.3   231  PHE231      0.0574
    119  CG         6.3810   24.4570   41.0450 C.ar  231  PHE231     -0.0200
    120  CD1        7.1760   23.3200   40.9040 C.ar  231  PHE231     -0.0042
    121  CD2        5.7350   24.9540   39.9240 C.ar  231  PHE231     -0.0042
    122  CE1        7.3220   22.6910   39.6520 C.ar  231  PHE231     -0.0003
    123  CE2        5.8760   24.3250   38.6760 C.ar  231  PHE231     -0.0003
    124  CZ         6.6650   23.2040   38.5550 C.ar  231  PHE231     -0.0000
    125  N          6.8890   28.2830   43.2110 N.am  232  TYR232     -0.1974
    126  CA         6.7610   29.4980   43.9990 C.3   232  TYR232      0.1639
    127  C          5.4410   30.1670   43.6550 C.2   232  TYR232      0.2290
    128  O          5.0770   30.2470   42.4790 O.2   232  TYR232     -0.2864
    129  CB         7.9300   30.4830   43.6950 C.3   232  TYR232      0.0560
    130  CG         9.2800   29.9030   44.0940 C.ar  232  TYR232     -0.0198
    131  CD1        9.9290   28.9720   43.2820 C.ar  232  TYR232     -0.0009
    132  CD2        9.8490   30.1920   45.3190 C.ar  232  TYR232     -0.0009
    133  CE1       11.1530   28.3700   43.6810 C.ar  232  TYR232      0.0417
    134  CE2       11.0790   29.6070   45.7120 C.ar  232  TYR232      0.0417
    135  CZ        11.7140   28.6930   44.8950 C.ar  232  TYR232      0.1957
    136  OH        12.8960   28.0780   45.2900 O.3   232  TYR232     -0.2866
@<TRIPOS>BOND
     1   124   123   ar
     2   124   122   ar
     3   123   121   ar
     4   122   120   ar
     5   121   119   ar
     6   102   101    2
     7   120   119   ar
     8   119   118    1
     9   101   100    1
    10    84    82   ar
    11    84    83   ar
    12   113   112    2
    13    82    80   ar
    14   110   111    1
    15   118   115    1
    16   128   127    2
    17    83    81   ar
    18   112   114   am
    19   112   111    1
    20   100   103    1
    21   100    99    1
    22   103   104    1
    23   115   114    1
    24   115   116    1
    25    80    79   ar
    26    80    78   ar
    27   125   116   am
    28   125   126    1
    29   131   133   ar
    30   131   130   ar
    31    79    77   ar
    32   127   126    1
    33   133   135   ar
    34   129   126    1
    35   129   130    1
    36   116   117    2
    37   105   104    1
    38   105   106    1
    39    81    78   ar
    40   130   132   ar
    41    78    76   ar
    42   108   107    1
    43    77    76   ar
    44   135   136    1
    45   135   134   ar
    46    74    73    2
    47   106   107    2
    48   107   109    1
    49    76    75    1
    50   132   134   ar
    51    31    29   ar
    52    30    29   ar
    53    86    87    1
    54    86    85    1
    55    29    28    1
    56    87    88    2
    57    28    25    1
    58    73    85   am
    59    73    72    1
    60    24    25    1
    61    25    26    1
    62    89    90    1
    63    95    96    2
    64    95    94    1
    65    75    72    1
    66    70    69    1
    67    69    66    1
    68    90    91    1
    69    71    72    1
    70    71    67   am
    71    92    91    2
    72    91    93   am
    73    93    94    1
    74    94    97    1
    75    22    21   ar
    76    26    32   am
    77    26    27    2
    78    65    66    1
    79    65    60   am
    80    32    33    1
    81    66    67    1
    82    67    68    2
    83    23    21   ar
    84    21    20    1
    85    59    58    1
    86    59    60    1
    87    59    62    1
    88    60    61    2
    89    35    34    2
    90    97    98    1
    91    36    33    1
    92    33    34    1
    93    64    62    1
    94    63    62    1
    95    34    37   am
    96    20    19    1
    97    98    42    1
    98    19    16    1
    99    37    38    1
   100    38    41    1
   101    38    39    1
   102    16    15    1
   103    16    17    1
   104    41    42    1
   105    56    53    1
   106    56    57    1
   107    17    18    2
   108    39    40    2
   109    39    43   am
   110    53    52    1
   111    53    54    1
   112    43    44    1
   113    54    55    2
   114    12    14   ar
   115    12    10   ar
   116    14    13   ar
   117     9    10   ar
   118     9     7   ar
   119    44    47    1
   120    44    45    1
   121    10     8   ar
   122    51    49   ar
   123    47    48    1
   124     7     6   ar
   125    13    11   ar
   126    45    46    2
   127     8    11   ar
   128     8     6   ar
   129    49    48    1
   130    49    50   ar
   131     6     5    1
   132     1     2    1
   133     5     2    1
   134     2     3    1
   135     3     4    2
