@<TRIPOS>MOLECULE
tmp/1wb0A00.pdb
 206 204 0 0 0
SMALL
GASTEIGER

@<TRIPOS>ATOM
      1  N          8.7270   -3.4710   16.6190 N.3     6  TYR6       -0.1241
      2  CA         9.3120   -4.0320   15.4100 C.3     6  TYR6        0.1605
      3  C         10.0880   -5.3330   15.6510 C.2     6  TYR6        0.2264
      4  O         10.8980   -5.4420   16.5820 O.2     6  TYR6       -0.2867
      5  CB        10.2740   -3.0380   14.7490 C.3     6  TYR6        0.0534
      6  CG         9.5960   -1.9290   13.9800 C.ar    6  TYR6       -0.0201
      7  CD1        9.1980   -2.1180   12.6510 C.ar    6  TYR6       -0.0009
      8  CD2        9.3440   -0.6980   14.5840 C.ar    6  TYR6       -0.0009
      9  CE1        8.5550   -1.0900   11.9410 C.ar    6  TYR6        0.0417
     10  CE2        8.7080    0.3320   13.8920 C.ar    6  TYR6        0.0417
     11  CZ         8.3150    0.1280   12.5740 C.ar    6  TYR6        0.1957
     12  OH         7.6810    1.1640   11.9290 O.3     6  TYR6       -0.2866
     13  N         16.4240  -10.3540   10.2930 N.3    10  TRP10      -0.1241
     14  CA        17.8420  -10.7270   10.2150 C.3    10  TRP10       0.1605
     15  C         18.3880  -11.0280   11.6190 C.2    10  TRP10       0.2264
     16  O         19.5420  -11.4570   11.7710 O.2    10  TRP10      -0.2867
     17  CB        18.6760   -9.6320    9.5340 C.3    10  TRP10       0.0550
     18  CG        18.6760   -8.2890   10.2010 C.ar   10  TRP10       0.0003
     19  CD1       19.6110   -7.8010   11.0800 C.ar   10  TRP10       0.0946
     20  CD2       17.7070   -7.2480   10.0290 C.ar   10  TRP10       0.0152
     21  NE1       19.2840   -6.5130   11.4600 N.ar   10  TRP10      -0.2442
     22  CE2       18.1190   -6.1530   10.8310 C.ar   10  TRP10       0.0810
     23  CE3       16.5250   -7.1370    9.2740 C.ar   10  TRP10       0.0012
     24  CZ2       17.3940   -4.9610   10.8980 C.ar   10  TRP10       0.0191
     25  CZ3       15.8040   -5.9590    9.3380 C.ar   10  TRP10       0.0001
     26  CH2       16.2430   -4.8770   10.1530 C.ar   10  TRP10       0.0015
     27  N         11.7740   -6.7140    7.2700 N.3    37  PHE37      -0.1241
     28  CA        11.0880   -5.8640    6.2840 C.3    37  PHE37       0.1605
     29  C         10.7070   -6.6540    5.0410 C.2    37  PHE37       0.2264
     30  O         11.2720   -7.7200    4.7530 O.2    37  PHE37      -0.2867
     31  CB        12.0310   -4.7790    5.7390 C.3    37  PHE37       0.0534
     32  CG        12.3880   -3.7220    6.7220 C.ar   37  PHE37      -0.0203
     33  CD1       11.4480   -2.7870    7.1080 C.ar   37  PHE37      -0.0042
     34  CD2       13.6810   -3.6540    7.2540 C.ar   37  PHE37      -0.0042
     35  CE1       11.7750   -1.7700    8.0210 C.ar   37  PHE37      -0.0003
     36  CE2       14.0050   -2.6360    8.1730 C.ar   37  PHE37      -0.0003
     37  CZ        13.0460   -1.7030    8.5420 C.ar   37  PHE37      -0.0000
     38  N         16.2500    1.2040    6.0150 N.3    78  TRP78      -0.1227
     39  CA        17.4210    1.9190    5.5260 C.3    78  TRP78       0.1737
     40  C         18.1780    1.2400    4.3890 C.2    78  TRP78       0.2595
     41  O         18.5050    1.8700    3.3830 O.2    78  TRP78      -0.2718
     42  CB        18.4030    2.1770    6.6770 C.3    78  TRP78       0.0564
     43  CG        19.5570    3.0060    6.1970 C.ar   78  TRP78       0.0003
     44  CD1       20.8090    2.5720    5.8960 C.ar   78  TRP78       0.0946
     45  CD2       19.5140    4.4030    5.8480 C.ar   78  TRP78       0.0152
     46  NE1       21.5560    3.6140    5.3710 N.ar   78  TRP78      -0.2442
     47  CE2       20.7860    4.7450    5.3330 C.ar   78  TRP78       0.0810
     48  CE3       18.5240    5.3950    5.9150 C.ar   78  TRP78       0.0012
     49  CZ2       21.0970    6.0420    4.8880 C.ar   78  TRP78       0.0191
     50  CZ3       18.8340    6.6910    5.4670 C.ar   78  TRP78       0.0001
     51  CH2       20.1120    6.9970    4.9610 C.ar   78  TRP78       0.0015
     52  N         18.4640   -0.0430    4.5560 N.am   79  ASN79      -0.1974
     53  CA        19.2360   -0.7720    3.5530 C.3    79  ASN79       0.1688
     54  C         18.5350   -0.9210    2.2190 C.2    79  ASN79       0.2292
     55  O         19.1850   -1.0460    1.1900 O.2    79  ASN79      -0.2864
     56  CB        19.6400   -2.1330    4.1170 C.3    79  ASN79       0.1181
     57  CG        20.7630   -2.0190    5.1370 C.2    79  ASN79       0.2629
     58  OD1       20.8840   -2.8530    6.0350 O.2    79  ASN79      -0.2716
     59  ND2       21.5970   -0.9840    4.9980 N.am   79  ASN79      -0.0877
     60  N          8.0040    2.2640    5.2350 N.3   117  ASP117     -0.1239
     61  CA         9.2650    2.7200    5.8240 C.3   117  ASP117      0.1674
     62  C         10.2630    3.0930    4.7400 C.2   117  ASP117      0.2266
     63  O         11.3460    2.5060    4.6260 O.2   117  ASP117     -0.2867
     64  CB         9.8690    1.6520    6.7600 C.3   117  ASP117      0.1410
     65  CG        11.1010    2.1520    7.5180 C.2   117  ASP117      0.3668
     66  OD1       11.7770    1.3200    8.1590 O.co2 117  ASP117     -0.2456
     67  OD2       11.3910    3.3670    7.5000 O.co2 117  ASP117     -0.2456
     68  N         13.0140    5.3680    3.3960 N.3   119  GLU119     -0.1231
     69  CA        14.0060    6.2450    4.0040 C.3   119  GLU119      0.1699
     70  C         14.9340    6.8810    2.9560 C.2   119  GLU119      0.2592
     71  O         16.0210    6.3470    2.6810 O.2   119  GLU119     -0.2718
     72  CB        14.8080    5.4600    5.0640 C.3   119  GLU119      0.0402
     73  CG        13.8370    4.8510    6.1140 C.3   119  GLU119      0.1161
     74  CD        14.4890    4.2960    7.3790 C.2   119  GLU119      0.3649
     75  OE1       15.7190    4.3950    7.5530 O.co2 119  GLU119     -0.2457
     76  OE2       13.7310    3.7580    8.2190 O.co2 119  GLU119     -0.2457
     77  N         14.5110    7.9850    2.3300 N.am  120  TYR120     -0.1976
     78  CA        13.2670    8.7160    2.6120 C.3   120  TYR120      0.1639
     79  C         12.8340    9.3950    1.3120 C.2   120  TYR120      0.2290
     80  O         13.6600    9.6420    0.4310 O.2   120  TYR120     -0.2864
     81  CB        13.5070    9.8800    3.6090 C.3   120  TYR120      0.0560
     82  CG        14.2520    9.5370    4.8620 C.ar  120  TYR120     -0.0198
     83  CD1       13.6050    9.0270    5.9810 C.ar  120  TYR120     -0.0009
     84  CD2       15.6350    9.7090    4.9070 C.ar  120  TYR120     -0.0009
     85  CE1       14.3310    8.6870    7.1360 C.ar  120  TYR120      0.0417
     86  CE2       16.3590    9.3820    6.0320 C.ar  120  TYR120      0.0417
     87  CZ        15.7180    8.8750    7.1350 C.ar  120  TYR120      0.1957
     88  OH        16.4950    8.5550    8.2330 O.3   120  TYR120     -0.2866
     89  N         18.2880   11.3790   -0.0510 N.3   124  GLN124     -0.1245
     90  CA        19.0090   10.1450   -0.2670 C.3   124  GLN124      0.1566
     91  C         18.8410    9.4980   -1.6370 C.2   124  GLN124      0.2260
     92  O         18.8310    8.2770   -1.7470 O.2   124  GLN124     -0.2867
     93  CB        18.6080    9.1460    0.8210 C.3   124  GLN124      0.0367
     94  CG        19.1440    9.5270    2.2050 C.3   124  GLN124      0.0905
     95  CD        20.6530    9.3130    2.2760 C.2   124  GLN124      0.2608
     96  OE1       21.1350    8.2570    1.8930 O.2   124  GLN124     -0.2717
     97  NE2       21.3890   10.3020    2.7770 N.am  124  GLN124     -0.0878
     98  N          6.6700    4.8750    9.1280 N.3   162  ALA162     -0.1245
     99  CA         7.7460    5.1490   10.0750 C.3   162  ALA162      0.1562
    100  C          8.3790    6.4050    9.4780 C.2   162  ALA162      0.2260
    101  O          8.7840    6.3830    8.3140 O.2   162  ALA162     -0.2867
    102  CB         8.7570    3.9970   10.0900 C.3   162  ALA162      0.0290
    103  N         15.0170   16.0400    6.6860 N.3   169  TYR169     -0.1241
    104  CA        14.3330   14.9290    6.0250 C.3   169  TYR169      0.1605
    105  C         12.8200   15.1210    6.0740 C.2   169  TYR169      0.2264
    106  O         12.1130   14.7810    5.1250 O.2   169  TYR169     -0.2867
    107  CB        14.7130   13.5910    6.6740 C.3   169  TYR169      0.0534
    108  CG        16.1500   13.1770    6.4470 C.ar  169  TYR169     -0.0201
    109  CD1       16.7630   13.3890    5.2180 C.ar  169  TYR169     -0.0009
    110  CD2       16.8620   12.5120    7.4370 C.ar  169  TYR169     -0.0009
    111  CE1       18.0610   12.9450    4.9740 C.ar  169  TYR169      0.0417
    112  CE2       18.1590   12.0520    7.2060 C.ar  169  TYR169      0.0417
    113  CZ        18.7480   12.2720    5.9650 C.ar  169  TYR169      0.1957
    114  OH        20.0000   11.7690    5.6940 O.3   169  TYR169     -0.2866
    115  N         10.3380    8.0680   14.3950 N.3   189  MET189     -0.1245
    116  CA        11.6490    7.5030   14.7300 C.3   189  MET189      0.1570
    117  C         12.4000    8.4990   15.5890 C.2   189  MET189      0.2261
    118  O         13.3180    9.1780   15.1290 O.2   189  MET189     -0.2867
    119  CB        12.4020    7.1680   13.4490 C.3   189  MET189      0.0387
    120  CG        11.6920    6.0740   12.6640 C.3   189  MET189      0.0595
    121  SD        12.8240    5.5520   11.3520 S.3   189  MET189     -0.1393
    122  CE        12.5200    6.8180   10.1590 C.3   189  MET189      0.0692
    123  N         14.8310    8.7350   17.5220 N.3   191  TYR191     -0.1227
    124  CA        16.1440    8.2260   17.8850 C.3   191  TYR191      0.1736
    125  C         17.1080    8.5130   16.7250 C.2   191  TYR191      0.2595
    126  O         16.7130    9.1180   15.7230 O.2   191  TYR191     -0.2718
    127  CB        16.0600    6.7260   18.2410 C.3   191  TYR191      0.0548
    128  CG        15.1530    5.8770   17.3540 C.ar  191  TYR191     -0.0200
    129  CD1       15.4920    5.5990   16.0190 C.ar  191  TYR191     -0.0009
    130  CD2       13.9560    5.3520   17.8580 C.ar  191  TYR191     -0.0009
    131  CE1       14.6450    4.8070   15.2090 C.ar  191  TYR191      0.0417
    132  CE2       13.1110    4.5710   17.0650 C.ar  191  TYR191      0.0417
    133  CZ        13.4630    4.3030   15.7430 C.ar  191  TYR191      0.1957
    134  OH        12.6360    3.5380   14.9570 O.3   191  TYR191     -0.2866
    135  N         18.3630    8.0900   16.8610 N.am  192  ASP192     -0.1974
    136  CA        19.3990    8.3930   15.8790 C.3   192  ASP192      0.1709
    137  C         19.5990    9.9130   15.7750 C.2   192  ASP192      0.2293
    138  O         19.9060   10.4510   14.7080 O.2   192  ASP192     -0.2864
    139  CB        19.0820    7.8030   14.4860 C.3   192  ASP192      0.1436
    140  CG        19.0040    6.2830   14.4940 C.2   192  ASP192      0.3671
    141  OD1       19.7090    5.6460   15.3130 O.co2 192  ASP192     -0.2456
    142  OD2       18.2420    5.7070   13.6650 O.co2 192  ASP192     -0.2456
    143  N         28.6350    9.3740   13.4170 N.3   197  TRP197     -0.1241
    144  CA        28.8260   10.1670   12.2070 C.3   197  TRP197      0.1605
    145  C         29.1320   11.6140   12.5630 C.2   197  TRP197      0.2264
    146  O         29.4610   12.4090   11.6870 O.2   197  TRP197     -0.2867
    147  CB        27.5940   10.1010   11.3010 C.3   197  TRP197      0.0550
    148  CG        26.3160   10.4990   11.9800 C.ar  197  TRP197      0.0003
    149  CD1       25.7990   11.7560   12.1040 C.ar  197  TRP197      0.0946
    150  CD2       25.4060    9.6180   12.6420 C.ar  197  TRP197      0.0152
    151  NE1       24.6070   11.7090   12.8120 N.ar  197  TRP197     -0.2442
    152  CE2       24.3500   10.4060   13.1470 C.ar  197  TRP197      0.0810
    153  CE3       25.3810    8.2320   12.8530 C.ar  197  TRP197      0.0012
    154  CZ2       23.2700    9.8490   13.8550 C.ar  197  TRP197      0.0191
    155  CZ3       24.3050    7.6840   13.5600 C.ar  197  TRP197      0.0001
    156  CH2       23.2710    8.4930   14.0470 C.ar  197  TRP197      0.0015
    157  N         18.4250    0.1900   21.8660 N.3   246  TYR246     -0.1241
    158  CA        19.8330    0.1220   21.5270 C.3   246  TYR246      0.1605
    159  C         20.4310    1.4960   21.8070 C.2   246  TYR246      0.2264
    160  O         19.7100    2.4870   21.9870 O.2   246  TYR246     -0.2867
    161  CB        20.0380   -0.2180   20.0410 C.3   246  TYR246      0.0534
    162  CG        19.5640    0.8690   19.1040 C.ar  246  TYR246     -0.0201
    163  CD1       20.4380    1.8490   18.6230 C.ar  246  TYR246     -0.0009
    164  CD2       18.2100    0.9520   18.7490 C.ar  246  TYR246     -0.0009
    165  CE1       19.9810    2.8880   17.8190 C.ar  246  TYR246      0.0417
    166  CE2       17.7420    1.9880   17.9440 C.ar  246  TYR246      0.0417
    167  CZ        18.6260    2.9460   17.4860 C.ar  246  TYR246      0.1957
    168  OH        18.1370    3.9740   16.6990 O.3   246  TYR246     -0.2866
    169  N         23.9460    4.2610   20.8610 N.3   248  ARG248     -0.1245
    170  CA        24.9300    4.5770   19.8490 C.3   248  ARG248      0.1563
    171  C         26.2540    4.8550   20.5270 C.2   248  ARG248      0.2260
    172  O         26.3450    5.6790   21.4420 O.2   248  ARG248     -0.2867
    173  CB        24.4420    5.7350   19.0010 C.3   248  ARG248      0.0307
    174  CG        23.3370    5.2270   18.0590 C.3   248  ARG248      0.0489
    175  CD        23.2540    6.0040   16.7990 C.3   248  ARG248      0.2205
    176  NE        22.3190    5.3660   15.8690 N.pl3 248  ARG248     -0.0865
    177  CZ        22.6410    4.4030   15.0070 C.cat 248  ARG248      0.5346
    178  NH1       23.8850    3.9380   14.9190 N.pl3 248  ARG248      0.1354
    179  NH2       21.7040    3.8970   14.2230 N.pl3 248  ARG248      0.1354
    180  N         28.2240   -4.3830   14.7750 N.3   276  GLU276     -0.1231
    181  CA        27.9840   -3.2080   13.9620 C.3   276  GLU276      0.1699
    182  C         28.5000   -2.0110   14.7370 C.2   276  GLU276      0.2592
    183  O         27.8160   -1.4840   15.6230 O.2   276  GLU276     -0.2718
    184  CB        26.4930   -3.0820   13.6930 C.3   276  GLU276      0.0402
    185  CG        26.1050   -1.8630   12.9120 C.3   276  GLU276      0.1161
    186  CD        24.6260   -1.8480   12.6210 C.2   276  GLU276      0.3649
    187  OE1       23.9480   -0.8710   13.0260 O.co2 276  GLU276     -0.2457
    188  OE2       24.1460   -2.8200   11.9910 O.co2 276  GLU276     -0.2457
    189  N         29.7290   -1.6120   14.4200 N.am  277  GLY277     -0.1957
    190  CA        30.3520   -0.4870   15.0990 C.3   277  GLY277      0.1869
    191  C         29.4510    0.7290   15.0750 C.2   277  GLY277      0.2309
    192  O         28.8830    1.0620   14.0380 O.2   277  GLY277     -0.2863
    193  N         12.0250    0.1120   18.5040 N.3   337  TRP337     -0.1241
    194  CA        12.9720   -0.4750   17.5710 C.3   337  TRP337      0.1605
    195  C         14.1010   -0.9550   18.5040 C.2   337  TRP337      0.2264
    196  O         14.8400   -0.1250   19.0480 O.2   337  TRP337     -0.2867
    197  CB        13.5430    0.5550   16.5970 C.3   337  TRP337      0.0550
    198  CG        14.5030   -0.1050   15.6420 C.ar  337  TRP337      0.0003
    199  CD1       15.8370   -0.3280   15.8420 C.ar  337  TRP337      0.0946
    200  CD2       14.1710   -0.7280   14.3930 C.ar  337  TRP337      0.0152
    201  NE1       16.3590   -1.0610   14.7900 N.ar  337  TRP337     -0.2442
    202  CE2       15.3530   -1.3140   13.8880 C.ar  337  TRP337      0.0810
    203  CE3       12.9880   -0.8440   13.6550 C.ar  337  TRP337      0.0012
    204  CZ2       15.3870   -2.0140   12.6630 C.ar  337  TRP337      0.0191
    205  CZ3       13.0210   -1.5390   12.4340 C.ar  337  TRP337      0.0001
    206  CH2       14.2090   -2.1120   11.9570 C.ar  337  TRP337      0.0015
@<TRIPOS>BOND
     1    92    91    2
     2    91    90    1
     3    90    89    1
     4    90    93    1
     5    80    79    2
     6    93    94    1
     7    55    54    2
     8    79    78    1
     9    96    95    2
    10    94    95    1
    11    54    53    1
    12    95    97   am
    13    77    78    1
    14    77    70   am
    15    78    81    1
    16    71    70    2
    17    70    69    1
    18    41    40    2
    19    68    69    1
    20    53    56    1
    21    53    52    1
    22    81    82    1
    23    69    72    1
    24    56    57    1
    25    40    52   am
    26    40    39    1
    27    63    62    2
    28    62    61    1
    29    30    29    2
    30    82    84   ar
    31    82    83   ar
    32    49    51   ar
    33    49    47   ar
    34    84    86   ar
    35    51    50   ar
    36   111   109   ar
    37   111   113   ar
    38    59    57   am
    39    29    28    1
    40    72    73    1
    41   106   105    2
    42    57    58    2
    43   109   108   ar
    44    60    61    1
    45    47    46   ar
    46    47    45   ar
    47    46    44   ar
    48    50    48   ar
    49    39    38    1
    50    39    42    1
    51   114   113    1
    52    31    28    1
    53    31    32    1
    54    61    64    1
    55    45    48   ar
    56    45    43   ar
    57    44    43   ar
    58   113   112   ar
    59    83    85   ar
    60   104   105    1
    61   104   107    1
    62   104   103    1
    63    86    87   ar
    64    73    74    1
    65    43    42    1
    66    28    27    1
    67   108   107    1
    68   108   110   ar
    69    32    33   ar
    70    32    34   ar
    71    64    65    1
    72    33    35   ar
    73    87    85   ar
    74    87    88    1
    75   112   110   ar
    76    34    36   ar
    77    74    75   ar
    78    74    76   ar
    79    67    65   ar
    80    65    66   ar
    81    35    37   ar
    82    36    37   ar
    83   101   100    2
    84    98    99    1
    85    23    25   ar
    86    23    20   ar
    87    25    26   ar
    88   100    99    1
    89    17    18    1
    90    17    14    1
    91    20    18   ar
    92    20    22   ar
    93    99   102    1
    94    26    24   ar
    95   122   121    1
    96    18    19   ar
    97    14    13    1
    98    14    15    1
    99    22    24   ar
   100    22    21   ar
   101    19    21   ar
   102   147   148    1
   103   147   144    1
   104   121   120    1
   105    15    16    2
   106   146   145    2
   107    12    11    1
   108     9    11   ar
   109     9     7   ar
   110   206   205   ar
   111   206   204   ar
   112   148   149   ar
   113   148   150   ar
   114   188   186   ar
   115   149   151   ar
   116   144   145    1
   117   144   143    1
   118   205   203   ar
   119    11    10   ar
   120   186   185    1
   121   186   187   ar
   122   150   153   ar
   123   150   152   ar
   124     7     6   ar
   125   204   202   ar
   126   120   119    1
   127   151   152   ar
   128   153   155   ar
   129   185   184    1
   130   152   154   ar
   131   119   116    1
   132   155   156   ar
   133   203   200   ar
   134   142   140   ar
   135   184   181    1
   136   154   156   ar
   137   202   200   ar
   138   202   201   ar
   139    10     8   ar
   140   181   182    1
   141   181   180    1
   142     6     8   ar
   143     6     5    1
   144   192   191    2
   145   179   177    1
   146   200   198   ar
   147   115   116    1
   148   189   182   am
   149   189   190    1
   150   139   140    1
   151   139   136    1
   152   140   141   ar
   153   138   137    2
   154   116   117    1
   155   182   183    2
   156     5     2    1
   157   201   199   ar
   158   178   177    1
   159   134   133    1
   160   177   176    2
   161   191   190    1
   162   118   117    2
   163   131   133   ar
   164   131   129   ar
   165     2     3    1
   166     2     1    1
   167   198   199   ar
   168   198   197    1
   169     3     4    2
   170   126   125    2
   171   133   132   ar
   172   137   136    1
   173   176   175    1
   174   136   135    1
   175   129   128   ar
   176   197   194    1
   177   168   167    1
   178   125   135   am
   179   125   124    1
   180   175   174    1
   181   132   130   ar
   182   128   130   ar
   183   128   127    1
   184   167   165   ar
   185   167   166   ar
   186   123   124    1
   187   194   195    1
   188   194   193    1
   189   165   163   ar
   190   124   127    1
   191   166   164   ar
   192   174   173    1
   193   195   196    2
   194   163   162   ar
   195   164   162   ar
   196   173   170    1
   197   162   161    1
   198   170   171    1
   199   170   169    1
   200   161   158    1
   201   171   172    2
   202   158   159    1
   203   158   157    1
   204   159   160    2
