@<TRIPOS>MOLECULE
tmp/1wb4A00.pdb
 93 88 0 0 0
SMALL
GASTEIGER

@<TRIPOS>ATOM
      1  N          9.0870  111.6030    7.4410 N.3    64  GLY64      -0.1225
      2  CA         7.6540  111.6490    7.2900 C.3    64  GLY64       0.1811
      3  C          7.2030  112.4650    6.1150 C.2    64  GLY64       0.2280
      4  O          7.8040  113.4970    5.8060 O.2    64  GLY64      -0.2866
      5  N         14.6540  111.6900   10.6800 N.3   152  ALA152     -0.1231
      6  CA        13.3630  112.0670   11.2940 C.3   152  ALA152      0.1694
      7  C         12.5550  110.8190   11.6020 C.2   152  ALA152      0.2591
      8  O         13.0630  109.9790   12.3250 O.2   152  ALA152     -0.2718
      9  CB        12.6670  113.1150   10.4460 C.3   152  ALA152      0.0304
     10  N         11.3830  110.6120   10.9910 N.am  153  MET153     -0.1979
     11  CA        10.7370  109.3090   11.1850 C.3   153  MET153      0.1605
     12  C         11.6230  108.1720   10.6780 C.2   153  MET153      0.2287
     13  O         11.5310  107.0850   11.2020 O.2   153  MET153     -0.2864
     14  CB         9.3680  109.2770   10.5200 C.3   153  MET153      0.0413
     15  CG         8.3370  110.1900   11.1770 C.3   153  MET153      0.0598
     16  SD         8.1640  109.8300   13.0110 S.3   153  MET153     -0.1393
     17  CE         7.6800  108.1080   13.0140 C.3   153  MET153      0.0692
     18  N         13.7380  107.2830   13.5720 N.3   156  LEU156     -0.1245
     19  CA        12.9990  106.2960   14.3570 C.3   156  LEU156      0.1561
     20  C         13.1200  104.8910   13.7250 C.2   156  LEU156      0.2260
     21  O         13.3850  103.9170   14.4140 O.2   156  LEU156     -0.2867
     22  CB        11.5290  106.7570   14.5020 C.3   156  LEU156      0.0270
     23  CG        10.6340  105.7880   15.2560 C.3   156  LEU156      0.0019
     24  CD1        9.7640  106.4150   16.3200 C.3   156  LEU156      0.0001
     25  CD2        9.9160  104.9110   14.3300 C.3   156  LEU156      0.0001
     26  N         18.4590  113.0110   13.4160 N.3   176  SER176     -0.1202
     27  CA        17.3150  113.8030   13.8440 C.3   176  SER176      0.2020
     28  C         16.0570  112.9850   14.1370 C.2   176  SER176      0.2619
     29  O         14.9550  113.3310   13.6940 O.2   176  SER176     -0.2717
     30  CB        17.0190  114.8910   12.8200 C.3   176  SER176      0.2103
     31  OG        18.1160  115.7550   12.6720 O.3   176  SER176     -0.2182
     32  N         16.2260  111.9520   14.9180 N.am  177  GLY177     -0.1942
     33  CA        15.1240  111.1690   15.4270 C.3   177  GLY177      0.2014
     34  C         15.5840  110.3790   16.6020 C.2   177  GLY177      0.2638
     35  O         16.7040  109.9000   16.6090 O.2   177  GLY177     -0.2714
     36  N         14.7030  110.2290   17.5650 N.am  178  ASP178     -0.1971
     37  CA        14.9380  109.3690   18.7210 C.3   178  ASP178      0.1709
     38  C         14.1670  108.0380   18.6450 C.2   178  ASP178      0.2293
     39  O         13.3260  107.8270   17.7630 O.2   178  ASP178     -0.2864
     40  CB        14.6060  110.1720   20.0040 C.3   178  ASP178      0.1436
     41  CG        13.1350  110.4940   20.1580 C.2   178  ASP178      0.3671
     42  OD1       12.5530  111.1190   19.2250 O.co2 178  ASP178     -0.2456
     43  OD2       12.5220  110.1520   21.2030 O.co2 178  ASP178     -0.2456
     44  N         11.4390  105.6090   20.1030 N.3   180  TRP180     -0.1241
     45  CA        10.1950  105.9030   20.8320 C.3   180  TRP180      0.1605
     46  C          9.7840  104.8220   21.8590 C.2   180  TRP180      0.2264
     47  O          8.7590  104.9610   22.5380 O.2   180  TRP180     -0.2867
     48  CB         9.0390  106.2810   19.8760 C.3   180  TRP180      0.0550
     49  CG         9.1640  107.6520   19.3440 C.ar  180  TRP180      0.0003
     50  CD1       10.2410  108.5060   19.4780 C.ar  180  TRP180      0.0946
     51  CD2        8.2670  108.3030   18.4910 C.ar  180  TRP180      0.0152
     52  NE1       10.0410  109.6430   18.7560 N.ar  180  TRP180     -0.2442
     53  CE2        8.8690  109.5300   18.0760 C.ar  180  TRP180      0.0810
     54  CE3        7.0360  107.9520   17.9580 C.ar  180  TRP180      0.0012
     55  CZ2        8.2570  110.4130   17.1960 C.ar  180  TRP180      0.0191
     56  CZ3        6.4340  108.8150   17.0940 C.ar  180  TRP180      0.0001
     57  CH2        7.0380  110.0160   16.7010 C.ar  180  TRP180      0.0015
     58  N         14.5700  120.5740   15.8770 N.3   217  ILE217     -0.1231
     59  CA        13.6560  120.1730   16.8950 C.3   217  ILE217      0.1692
     60  C         13.9170  118.7760   17.4810 C.2   217  ILE217      0.2591
     61  O         13.6220  118.5320   18.6440 O.2   217  ILE217     -0.2718
     62  CB        12.1930  120.2580   16.3460 C.3   217  ILE217      0.0266
     63  CG1       12.0240  119.5660   14.9960 C.3   217  ILE217      0.0019
     64  CG2       11.7640  121.7330   16.1710 C.3   217  ILE217      0.0020
     65  CD1       10.5920  119.5010   14.4210 C.3   217  ILE217      0.0001
     66  N         14.4500  117.8420   16.6760 N.am  218  ALA218     -0.1980
     67  CA        14.6770  116.5080   17.1800 C.3   218  ALA218      0.1597
     68  C         15.7310  116.4130   18.2620 C.2   218  ALA218      0.2287
     69  O         15.7700  115.4410   18.9980 O.2   218  ALA218     -0.2864
     70  CB        15.0520  115.6190   16.0140 C.3   218  ALA218      0.0319
     71  N         15.7660  117.8770   20.9690 N.3   220  ALA220     -0.1231
     72  CA        15.1080  117.8320   22.2860 C.3   220  ALA220      0.1694
     73  C         14.9160  116.4410   22.8240 C.2   220  ALA220      0.2592
     74  O         15.0770  116.2020   24.0320 O.2   220  ALA220     -0.2718
     75  CB        13.7880  118.5320   22.2140 C.3   220  ALA220      0.0304
     76  N         14.5860  115.5060   21.9220 N.am  221  ASN221     -0.1974
     77  CA        14.3580  114.1220   22.3240 C.3   221  ASN221      0.1688
     78  C         15.5890  113.2690   22.1260 C.2   221  ASN221      0.2292
     79  O         15.8170  112.3290   22.8770 O.2   221  ASN221     -0.2864
     80  CB        13.1680  113.5700   21.5480 C.3   221  ASN221      0.1181
     81  CG        11.8720  114.1170   22.1760 C.2   221  ASN221      0.2629
     82  OD1       11.8400  114.2160   23.3890 O.2   221  ASN221     -0.2716
     83  ND2       10.8720  114.5000   21.3930 N.am  221  ASN221     -0.0877
     84  N         15.8710  121.4370   10.9780 N.3   256  HIS256     -0.1241
     85  CA        15.3090  120.1590   10.5570 C.3   256  HIS256      0.1621
     86  C         14.9640  120.2070    9.1130 C.2   256  HIS256      0.2264
     87  O         13.8240  120.4010    8.7040 O.2   256  HIS256     -0.2867
     88  CB        14.0870  119.8880   11.4310 C.3   256  HIS256      0.0745
     89  CG        13.5130  118.5020   11.3480 C.ar  256  HIS256      0.0817
     90  ND1       13.9380  117.4760   12.1610 N.ar  256  HIS256     -0.2268
     91  CD2       12.4950  117.9960   10.5970 C.ar  256  HIS256      0.1154
     92  CE1       13.2050  116.3930   11.9050 C.ar  256  HIS256      0.1986
     93  NE2       12.3240  116.6760   10.9630 N.ar  256  HIS256     -0.2212
@<TRIPOS>BOND
     1     4     3    2
     2     3     2    1
     3     2     1    1
     4    87    86    2
     5    86    85    1
     6     9     6    1
     7    14    15    1
     8    14    11    1
     9    85    84    1
    10    85    88    1
    11    91    93   ar
    12    91    89   ar
    13    12    11    1
    14    12    13    2
    15     5     6    1
    16    93    92   ar
    17    10    11    1
    18    10     7   am
    19    15    16    1
    20     6     7    1
    21    89    88    1
    22    89    90   ar
    23     7     8    2
    24    92    90   ar
    25    31    30    1
    26    30    27    1
    27    16    17    1
    28    26    27    1
    29    18    19    1
    30    29    28    2
    31    20    19    1
    32    20    21    2
    33    27    28    1
    34    28    32   am
    35    25    23    1
    36    19    22    1
    37    65    63    1
    38    22    23    1
    39    32    33    1
    40    63    62    1
    41    23    24    1
    42    33    34    1
    43    58    59    1
    44    70    67    1
    45    64    62    1
    46    62    59    1
    47    34    35    2
    48    34    36   am
    49    66    67    1
    50    66    60   am
    51    57    56   ar
    52    57    55   ar
    53    59    60    1
    54    56    54   ar
    55    67    68    1
    56    55    53   ar
    57    60    61    2
    58    36    37    1
    59    39    38    2
    60    54    51   ar
    61    53    51   ar
    62    53    52   ar
    63    68    69    2
    64    51    49   ar
    65    38    37    1
    66    37    40    1
    67    52    50   ar
    68    42    41   ar
    69    49    50   ar
    70    49    48    1
    71    48    45    1
    72    40    41    1
    73    44    45    1
    74    41    43   ar
    75    45    46    1
    76    71    72    1
    77    83    81   am
    78    80    81    1
    79    80    77    1
    80    46    47    2
    81    76    77    1
    82    76    73   am
    83    78    77    1
    84    78    79    2
    85    81    82    2
    86    75    72    1
    87    72    73    1
    88    73    74    2
