@<TRIPOS>MOLECULE
tmp/1wb5A00.pdb
 89 85 0 0 0
SMALL
GASTEIGER

@<TRIPOS>ATOM
      1  N         14.5230  111.9380   10.6760 N.3   152  ALA152     -0.1231
      2  CA        13.2550  112.3360   11.3000 C.3   152  ALA152      0.1694
      3  C         12.4570  111.0850   11.6080 C.2   152  ALA152      0.2591
      4  O         12.9680  110.2460   12.3560 O.2   152  ALA152     -0.2718
      5  CB        12.5370  113.3610   10.4160 C.3   152  ALA152      0.0304
      6  N         11.2750  110.8760   11.0250 N.am  153  MET153     -0.1979
      7  CA        10.6240  109.5940   11.2150 C.3   153  MET153      0.1605
      8  C         11.5060  108.4220   10.6940 C.2   153  MET153      0.2287
      9  O         11.3960  107.3180   11.1980 O.2   153  MET153     -0.2864
     10  CB         9.2330  109.6050   10.5960 C.3   153  MET153      0.0413
     11  CG         8.2080  110.4270   11.3890 C.3   153  MET153      0.0598
     12  SD         8.1420  110.0950   13.1610 S.3   153  MET153     -0.1393
     13  CE         7.5860  108.4880   13.1680 C.3   153  MET153      0.0692
     14  N         13.6640  107.5260   13.5700 N.3   156  LEU156     -0.1245
     15  CA        12.9170  106.5430   14.3530 C.3   156  LEU156      0.1561
     16  C         13.0160  105.1380   13.7150 C.2   156  LEU156      0.2260
     17  O         13.2550  104.1640   14.4000 O.2   156  LEU156     -0.2867
     18  CB        11.4750  107.0250   14.4830 C.3   156  LEU156      0.0270
     19  CG        10.6400  106.0050   15.2950 C.3   156  LEU156      0.0019
     20  CD1        9.7340  106.6860   16.2870 C.3   156  LEU156      0.0001
     21  CD2        9.8350  105.1200   14.3880 C.3   156  LEU156      0.0001
     22  N         18.3340  113.2740   13.3940 N.3   176  SER176     -0.1202
     23  CA        17.1840  114.0880   13.7910 C.3   176  SER176      0.2020
     24  C         15.9270  113.2810   14.1120 C.2   176  SER176      0.2619
     25  O         14.8340  113.6450   13.6960 O.2   176  SER176     -0.2717
     26  CB        16.8780  115.1740   12.7700 C.3   176  SER176      0.2103
     27  OG        18.0120  116.0000   12.5970 O.3   176  SER176     -0.2182
     28  N         16.0890  112.2380   14.8970 N.am  177  GLY177     -0.1942
     29  CA        14.9880  111.4420   15.3950 C.3   177  GLY177      0.2014
     30  C         15.4700  110.6330   16.5640 C.2   177  GLY177      0.2638
     31  O         16.5760  110.1220   16.5440 O.2   177  GLY177     -0.2714
     32  N         14.5980  110.4890   17.5590 N.am  178  ASP178     -0.1971
     33  CA        14.8560  109.6310   18.7060 C.3   178  ASP178      0.1709
     34  C         14.0950  108.2980   18.6100 C.2   178  ASP178      0.2293
     35  O         13.2910  108.0910   17.7020 O.2   178  ASP178     -0.2864
     36  CB        14.5240  110.3850   20.0140 C.3   178  ASP178      0.1436
     37  CG        13.0590  110.6920   20.1780 C.2   178  ASP178      0.3671
     38  OD1       12.4580  111.2320   19.2190 O.co2 178  ASP178     -0.2456
     39  OD2       12.4430  110.4200   21.2490 O.co2 178  ASP178     -0.2456
     40  N         11.3440  105.9340   20.0500 N.3   180  TRP180     -0.1241
     41  CA        10.1040  106.1810   20.8280 C.3   180  TRP180      0.1605
     42  C          9.7180  105.0920   21.8850 C.2   180  TRP180      0.2264
     43  O          8.7170  105.2060   22.6070 O.2   180  TRP180     -0.2867
     44  CB         8.9420  106.5700   19.9030 C.3   180  TRP180      0.0550
     45  CG         9.0940  107.9220   19.3130 C.ar  180  TRP180      0.0003
     46  CD1       10.2000  108.7580   19.4030 C.ar  180  TRP180      0.0946
     47  CD2        8.1680  108.5920   18.4870 C.ar  180  TRP180      0.0152
     48  NE1        9.9800  109.8980   18.6770 N.ar  180  TRP180     -0.2442
     49  CE2        8.7550  109.8180   18.0800 C.ar  180  TRP180      0.0810
     50  CE3        6.8870  108.2810   18.0230 C.ar  180  TRP180      0.0012
     51  CZ2        8.1040  110.7150   17.2490 C.ar  180  TRP180      0.0191
     52  CZ3        6.2470  109.1800   17.2050 C.ar  180  TRP180      0.0001
     53  CH2        6.8550  110.3620   16.7980 C.ar  180  TRP180      0.0015
     54  N         14.4690  120.8130   15.8230 N.3   217  ILE217     -0.1231
     55  CA        13.5020  120.4110   16.8400 C.3   217  ILE217      0.1692
     56  C         13.7680  119.0510   17.4690 C.2   217  ILE217      0.2591
     57  O         13.5030  118.8560   18.6410 O.2   217  ILE217     -0.2718
     58  CB        12.0390  120.5020   16.3140 C.3   217  ILE217      0.0266
     59  CG1       11.8290  119.7330   15.0170 C.3   217  ILE217      0.0019
     60  CG2       11.6500  121.9640   16.1080 C.3   217  ILE217      0.0020
     61  CD1       10.3870  119.6530   14.5360 C.3   217  ILE217      0.0001
     62  N         14.2710  118.0900   16.6860 N.am  218  ALA218     -0.1980
     63  CA        14.4910  116.7580   17.2120 C.3   218  ALA218      0.1597
     64  C         15.5690  116.6530   18.2630 C.2   218  ALA218      0.2287
     65  O         15.6110  115.6960   19.0160 O.2   218  ALA218     -0.2864
     66  CB        14.8140  115.8150   16.0560 C.3   218  ALA218      0.0319
     67  N         15.6700  118.1140   20.9700 N.3   220  ALA220     -0.1231
     68  CA        15.0440  118.0830   22.2860 C.3   220  ALA220      0.1694
     69  C         14.8330  116.6650   22.8190 C.2   220  ALA220      0.2592
     70  O         14.9460  116.4150   24.0280 O.2   220  ALA220     -0.2718
     71  CB        13.7260  118.7770   22.2180 C.3   220  ALA220      0.0304
     72  N         14.5040  115.7350   21.9220 N.am  221  ASN221     -0.1974
     73  CA        14.2680  114.3590   22.3210 C.3   221  ASN221      0.1688
     74  C         15.5070  113.4780   22.1180 C.2   221  ASN221      0.2292
     75  O         15.7220  112.5380   22.8600 O.2   221  ASN221     -0.2864
     76  CB        13.0580  113.8000   21.5650 C.3   221  ASN221      0.1181
     77  CG        11.7990  114.5480   21.8940 C.2   221  ASN221      0.2629
     78  OD1       11.4690  114.6820   23.0690 O.2   221  ASN221     -0.2716
     79  ND2       11.1030  115.0510   20.8840 N.am  221  ASN221     -0.0877
     80  N         15.7520  121.6810   11.0050 N.3   256  HIS256     -0.1241
     81  CA        15.1660  120.4010   10.5740 C.3   256  HIS256      0.1621
     82  C         14.8290  120.4530    9.0960 C.2   256  HIS256      0.2264
     83  O         13.6990  120.6670    8.6970 O.2   256  HIS256     -0.2867
     84  CB        13.9230  120.1200   11.4300 C.3   256  HIS256      0.0745
     85  CG        13.3700  118.7250   11.3430 C.ar  256  HIS256      0.0817
     86  ND1       13.8170  117.7020   12.1510 N.ar  256  HIS256     -0.2268
     87  CD2       12.3660  118.2050   10.5910 C.ar  256  HIS256      0.1154
     88  CE1       13.1220  116.6080   11.8720 C.ar  256  HIS256      0.1986
     89  NE2       12.2360  116.8880   10.9340 N.ar  256  HIS256     -0.2212
@<TRIPOS>BOND
     1    83    82    2
     2    82    81    1
     3     5     2    1
     4    81    80    1
     5    81    84    1
     6    87    89   ar
     7    87    85   ar
     8    10     7    1
     9    10    11    1
    10     1     2    1
    11     8     9    2
    12     8     7    1
    13    89    88   ar
    14     6     7    1
    15     6     3   am
    16     2     3    1
    17    85    84    1
    18    85    86   ar
    19    11    12    1
    20     3     4    2
    21    88    86   ar
    22    27    26    1
    23    26    23    1
    24    12    13    1
    25    22    23    1
    26    14    15    1
    27    25    24    2
    28    16    15    1
    29    16    17    2
    30    23    24    1
    31    24    28   am
    32    15    18    1
    33    21    19    1
    34    18    19    1
    35    61    59    1
    36    28    29    1
    37    59    58    1
    38    19    20    1
    39    29    30    1
    40    54    55    1
    41    66    63    1
    42    60    58    1
    43    58    55    1
    44    31    30    2
    45    30    32   am
    46    62    63    1
    47    62    56   am
    48    53    52   ar
    49    53    51   ar
    50    55    56    1
    51    52    50   ar
    52    63    64    1
    53    51    49   ar
    54    56    57    2
    55    32    33    1
    56    35    34    2
    57    50    47   ar
    58    49    47   ar
    59    49    48   ar
    60    64    65    2
    61    47    45   ar
    62    34    33    1
    63    48    46   ar
    64    33    36    1
    65    38    37   ar
    66    45    46   ar
    67    45    44    1
    68    44    41    1
    69    36    37    1
    70    40    41    1
    71    37    39   ar
    72    41    42    1
    73    79    77   am
    74    67    68    1
    75    76    77    1
    76    76    73    1
    77    42    43    2
    78    77    78    2
    79    72    73    1
    80    72    69   am
    81    74    73    1
    82    74    75    2
    83    71    68    1
    84    68    69    1
    85    69    70    2
