@<TRIPOS>MOLECULE
tmp/1wb6B00.pdb
 88 83 0 0 0
SMALL
GASTEIGER

@<TRIPOS>ATOM
      1  N          6.9660   89.3960   31.8620 N.3    64  GLY64      -0.1225
      2  CA         8.3940   89.2250   31.9580 C.3    64  GLY64       0.1811
      3  C          8.8150   88.1170   32.8970 C.2    64  GLY64       0.2280
      4  O          8.2310   87.9150   33.9330 O.2    64  GLY64      -0.2866
      5  N          1.3270   92.7600   31.7400 N.3   152  ALA152     -0.1231
      6  CA         2.5990   93.4060   32.0830 C.3   152  ALA152      0.1694
      7  C          3.4050   93.5990   30.8030 C.2   152  ALA152      0.2591
      8  O          2.9050   94.2640   29.8830 O.2   152  ALA152     -0.2718
      9  CB         3.2900   92.6530   33.2130 C.3   152  ALA152      0.0304
     10  N          4.5910   92.9960   30.6440 N.am  153  MET153     -0.1979
     11  CA         5.2160   93.0370   29.3240 C.3   153  MET153      0.1605
     12  C          4.3260   92.4020   28.2520 C.2   153  MET153      0.2287
     13  O          4.4450   92.7600   27.0990 O.2   153  MET153     -0.2864
     14  CB         6.5730   92.3940   29.3410 C.3   153  MET153      0.0413
     15  CG         7.6320   93.2480   30.1470 C.3   153  MET153      0.0598
     16  SD         7.7890   94.9320   29.5910 S.3   153  MET153     -0.1393
     17  CE         8.4700   94.6460   28.0530 C.3   153  MET153      0.0692
     18  N          2.1800   95.1860   27.0660 N.3   156  LEU156     -0.1245
     19  CA         2.9350   95.8550   26.0130 C.3   156  LEU156      0.1561
     20  C          2.8040   95.0870   24.7120 C.2   156  LEU156      0.2260
     21  O          2.5450   95.6880   23.6650 O.2   156  LEU156     -0.2867
     22  CB         4.3780   96.0330   26.4730 C.3   156  LEU156      0.0270
     23  CG         5.3380   96.6360   25.4840 C.3   156  LEU156      0.0019
     24  CD1        5.8510   95.8420   24.4170 C.3   156  LEU156      0.0001
     25  CD2        4.9240   97.9200   25.0680 C.3   156  LEU156      0.0001
     26  N         -2.4490   95.6400   32.8450 N.3   176  SER176     -0.1202
     27  CA        -1.2990   96.1370   33.6280 C.3   176  SER176      0.2020
     28  C         -0.0380   96.3520   32.7680 C.2   176  SER176      0.2619
     29  O          1.0760   95.9650   33.1570 O.2   176  SER176     -0.2717
     30  CB        -1.0000   95.1980   34.8240 C.3   176  SER176      0.2103
     31  OG        -2.1120   95.1370   35.6740 O.3   176  SER176     -0.2182
     32  N         -0.2070   96.9810   31.6230 N.am  177  GLY177     -0.1942
     33  CA         0.8980   97.4420   30.8080 C.3   177  GLY177      0.2014
     34  C          0.4210   98.5530   29.9090 C.2   177  GLY177      0.2638
     35  O         -0.7040   98.5160   29.4020 O.2   177  GLY177     -0.2714
     36  N          1.2970   99.5340   29.6760 N.am  178  ASP178     -0.1971
     37  CA         1.0540  100.6100   28.7410 C.3   178  ASP178      0.1709
     38  C          1.7850  100.3860   27.4310 C.2   178  ASP178      0.2293
     39  O          2.6220   99.4860   27.3060 O.2   178  ASP178     -0.2864
     40  CB         1.3990  101.9930   29.3620 C.3   178  ASP178      0.1436
     41  CG         2.8510  102.1630   29.6920 C.2   178  ASP178      0.3671
     42  OD1        3.4070  101.2950   30.4050 O.co2 178  ASP178     -0.2456
     43  OD2        3.4810  103.1800   29.2960 O.co2 178  ASP178     -0.2456
     44  N          4.5060  101.5230   24.8640 N.3   180  TRP180     -0.1241
     45  CA         5.7470  102.3080   25.0330 C.3   180  TRP180      0.1605
     46  C          6.1700  103.2080   23.8360 C.2   180  TRP180      0.2264
     47  O          7.2280  103.8680   23.8630 O.2   180  TRP180     -0.2867
     48  CB         6.8660  101.3880   25.5350 C.3   180  TRP180      0.0550
     49  CG         6.7180  100.9740   26.9750 C.ar  180  TRP180      0.0003
     50  CD1        5.6570  101.2280   27.8010 C.ar  180  TRP180      0.0946
     51  CD2        7.6020  100.1550   27.7300 C.ar  180  TRP180      0.0152
     52  NE1        5.8860  100.6980   29.0300 N.ar  180  TRP180     -0.2442
     53  CE2        7.0500   99.9820   28.9870 C.ar  180  TRP180      0.0810
     54  CE3        8.8090   99.5100   27.4400 C.ar  180  TRP180      0.0012
     55  CZ2        7.6650   99.2250   29.9890 C.ar  180  TRP180      0.0191
     56  CZ3        9.4220   98.7510   28.4090 C.ar  180  TRP180      0.0001
     57  CH2        8.8630   98.6120   29.6730 C.ar  180  TRP180      0.0015
     58  N          1.6160   98.8760   39.9920 N.3   217  ILE217     -0.1231
     59  CA         2.5420   99.8810   39.4680 C.3   217  ILE217      0.1692
     60  C          2.2380  100.3440   38.0490 C.2   217  ILE217      0.2591
     61  O          2.4870  101.4890   37.6770 O.2   217  ILE217     -0.2718
     62  CB         4.0400   99.3250   39.6010 C.3   217  ILE217      0.0266
     63  CG1        4.2040   97.9440   38.9010 C.3   217  ILE217      0.0019
     64  CG2        4.4010   99.1830   41.0520 C.3   217  ILE217      0.0020
     65  CD1        5.6960   97.3740   38.7710 C.3   217  ILE217      0.0001
     66  N          1.6470   99.4680   37.2180 N.am  218  ALA218     -0.1980
     67  CA         1.3090   99.8430   35.8700 C.3   218  ALA218      0.1597
     68  C          0.2520  100.9180   35.7520 C.2   218  ALA218      0.2287
     69  O          0.1410  101.5500   34.7130 O.2   218  ALA218     -0.2864
     70  CB         0.8740   98.6140   35.0910 C.3   218  ALA218      0.0319
     71  N          1.3340  104.5560   34.5320 N.3   221  ASN221     -0.1240
     72  CA         1.5990  104.7930   33.1330 C.3   221  ASN221      0.1653
     73  C          0.3490  104.5070   32.2860 C.2   221  ASN221      0.2266
     74  O          0.1550  105.1170   31.2670 O.2   221  ASN221     -0.2867
     75  CB         2.7310  103.8910   32.6360 C.3   221  ASN221      0.1155
     76  CG         4.0710  104.2280   33.2190 C.2   221  ASN221      0.2627
     77  OD1        4.3940  105.3720   33.4070 O.2   221  ASN221     -0.2716
     78  ND2        4.9020  103.2020   33.4000 N.am  221  ASN221     -0.0877
     79  N          0.2320   94.0040   41.3430 N.3   256  HIS256     -0.1245
     80  CA         0.7670   93.4790   40.1190 C.3   256  HIS256      0.1576
     81  C          1.1680   92.0330   40.2910 C.2   256  HIS256      0.2261
     82  O          2.3290   91.6890   40.5280 O.2   256  HIS256     -0.2867
     83  CB         1.8430   94.3710   39.6360 C.3   256  HIS256      0.0459
     84  CG         2.5130   94.0380   38.3430 C.3   256  HIS256      0.0936
     85  ND1        2.3040   94.8790   37.2360 N.3   256  HIS256     -0.1997
     86  CD2        3.4970   93.0610   38.0540 C.3   256  HIS256      0.1077
     87  CE1        3.3400   94.6240   36.4800 C.3   256  HIS256      0.1782
     88  NE2        3.7930   93.4140   36.7150 N.3   256  HIS256     -0.1983
@<TRIPOS>BOND
     1    21    20    2
     2    46    47    2
     3    46    45    1
     4    24    23    1
     5    20    19    1
     6    44    45    1
     7    45    48    1
     8    25    23    1
     9    23    22    1
    10    48    49    1
    11    19    22    1
    12    19    18    1
    13    49    51   ar
    14    49    50   ar
    15    13    12    2
    16    39    38    2
    17    38    37    1
    18    54    51   ar
    19    54    56   ar
    20    51    53   ar
    21    50    52   ar
    22    17    16    1
    23    12    11    1
    24    56    57   ar
    25    37    40    1
    26    37    36    1
    27    53    52   ar
    28    53    55   ar
    29    43    41   ar
    30    11    14    1
    31    11    10    1
    32    14    15    1
    33    40    41    1
    34    35    34    2
    35    16    15    1
    36    57    55   ar
    37    36    34   am
    38    41    42   ar
    39     8     7    2
    40    34    33    1
    41    10     7   am
    42     7     6    1
    43    33    32    1
    44    74    73    2
    45    32    28   am
    46     5     6    1
    47     1     2    1
    48     2     3    1
    49     6     9    1
    50    73    72    1
    51    75    72    1
    52    75    76    1
    53    28    29    2
    54    28    27    1
    55    26    27    1
    56     3     4    2
    57    72    71    1
    58    76    78   am
    59    76    77    2
    60    27    30    1
    61    69    68    2
    62    30    31    1
    63    70    67    1
    64    68    67    1
    65    67    66    1
    66    87    88    1
    67    87    85    1
    68    88    86    1
    69    66    60   am
    70    85    84    1
    71    61    60    2
    72    60    59    1
    73    86    84    1
    74    84    83    1
    75    65    63    1
    76    63    62    1
    77    59    62    1
    78    59    58    1
    79    62    64    1
    80    83    80    1
    81    80    81    1
    82    80    79    1
    83    81    82    2
