@<TRIPOS>MOLECULE
tmp/1wbeA00.pdb
 148 145 0 0 0
SMALL
GASTEIGER

@<TRIPOS>ATOM
      1  N         25.1930   17.4670   27.2960 N.3     2  HIS2       -0.1241
      2  CA        24.6170   16.5010   28.2510 C.3     2  HIS2        0.1621
      3  C         24.5810   17.0290   29.7000 C.2     2  HIS2        0.2264
      4  O         24.3120   16.2870   30.6360 O.2     2  HIS2       -0.2867
      5  CB        25.2810   15.1080   28.1650 C.3     2  HIS2        0.0745
      6  CG        26.7100   15.0730   28.6330 C.ar    2  HIS2        0.0817
      7  ND1       27.1100   15.5670   29.8590 N.ar    2  HIS2       -0.2268
      8  CD2       27.8270   14.5730   28.0490 C.ar    2  HIS2        0.1154
      9  CE1       28.4120   15.3990   29.9960 C.ar    2  HIS2        0.1986
     10  NE2       28.8720   14.8000   28.9120 N.ar    2  HIS2       -0.2212
     11  N         23.0550    9.0140   30.4340 N.3    25  LEU25      -0.1245
     12  CA        23.9650    8.4800   31.4660 C.3    25  LEU25       0.1561
     13  C         24.2300    7.0000   31.3240 C.2    25  LEU25       0.2260
     14  O         25.4280    6.6140   31.4180 O.2    25  LEU25      -0.2867
     15  CB        23.5170    8.8100   32.9120 C.3    25  LEU25       0.0270
     16  CG        23.5580   10.3230   33.2260 C.3    25  LEU25       0.0019
     17  CD1       22.9390   10.5940   34.6010 C.3    25  LEU25       0.0001
     18  CD2       24.9400   10.8760   33.1790 C.3    25  LEU25       0.0001
     19  N         27.5120    5.8310   29.4900 N.3    28  PHE28      -0.1227
     20  CA        28.8180    6.0010   30.1220 C.3    28  PHE28       0.1736
     21  C         29.2440    4.7310   30.7980 C.2    28  PHE28       0.2595
     22  O         30.4490    4.5210   31.0060 O.2    28  PHE28      -0.2718
     23  CB        28.8280    7.1980   31.0800 C.3    28  PHE28       0.0547
     24  CG        28.9100    8.5220   30.3820 C.ar   28  PHE28      -0.0202
     25  CD1       30.1340    9.0400   29.9590 C.ar   28  PHE28      -0.0042
     26  CD2       27.7700    9.2810   30.1640 C.ar   28  PHE28      -0.0042
     27  CE1       30.2120   10.2870   29.3050 C.ar   28  PHE28      -0.0003
     28  CE2       27.8460   10.5270   29.5240 C.ar   28  PHE28      -0.0003
     29  CZ        29.0620   11.0230   29.0970 C.ar   28  PHE28      -0.0000
     30  N         28.2900    3.8750   31.1670 N.am   29  PHE29      -0.1976
     31  CA        28.6190    2.5770   31.7390 C.3    29  PHE29       0.1639
     32  C         29.2410    1.6330   30.6810 C.2    29  PHE29       0.2290
     33  O         29.7880    0.5840   31.0570 O.2    29  PHE29      -0.2864
     34  CB        27.4210    1.9030   32.3970 C.3    29  PHE29       0.0560
     35  CG        26.8730    2.6240   33.6450 C.ar   29  PHE29      -0.0200
     36  CD1       26.9730    2.0140   34.9250 C.ar   29  PHE29      -0.0042
     37  CD2       26.1870    3.8250   33.5300 C.ar   29  PHE29      -0.0042
     38  CE1       26.4720    2.6660   36.0870 C.ar   29  PHE29      -0.0003
     39  CE2       25.6750    4.4500   34.6660 C.ar   29  PHE29      -0.0003
     40  CZ        25.7950    3.8820   35.9180 C.ar   29  PHE29      -0.0000
     41  N         30.2570   -1.7830   32.4950 N.3    36  VAL36      -0.1231
     42  CA        30.6450   -1.8320   33.9190 C.3    36  VAL36       0.1692
     43  C         29.4560   -1.4540   34.8150 C.2    36  VAL36       0.2592
     44  O         28.5240   -0.8210   34.3570 O.2    36  VAL36      -0.2718
     45  CB        31.8710   -0.9130   34.2300 C.3    36  VAL36       0.0266
     46  CG1       33.0440   -1.2500   33.2970 C.3    36  VAL36       0.0020
     47  CG2       31.5100    0.5830   34.0710 C.3    36  VAL36       0.0020
     48  N         29.4810   -1.9100   36.0760 N.am   37  PHE37      -0.1976
     49  CA        28.3970   -1.6920   37.0550 C.3    37  PHE37       0.1639
     50  C         27.0290   -1.9890   36.4450 C.2    37  PHE37       0.2290
     51  O         26.0840   -1.1680   36.5330 O.2    37  PHE37      -0.2864
     52  CB        28.3800   -0.2410   37.6320 C.3    37  PHE37       0.0560
     53  CG        29.6560    0.2150   38.2910 C.ar   37  PHE37      -0.0200
     54  CD1       30.4140   -0.6200   39.0940 C.ar   37  PHE37      -0.0042
     55  CD2       30.0320    1.5640   38.1760 C.ar   37  PHE37      -0.0042
     56  CE1       31.6210   -0.1220   39.7370 C.ar   37  PHE37      -0.0003
     57  CE2       31.1890    2.0620   38.7940 C.ar   37  PHE37      -0.0003
     58  CZ        31.9840    1.2070   39.5790 C.ar   37  PHE37      -0.0000
     59  N         23.9090    7.4350   43.3330 N.3    98  PHE98      -0.1227
     60  CA        25.1260    6.6140   43.2590 C.3    98  PHE98       0.1736
     61  C         26.1310    7.2780   42.3300 C.2    98  PHE98       0.2595
     62  O         27.3400    7.4330   42.6590 O.2    98  PHE98      -0.2718
     63  CB        24.7970    5.2200   42.7110 C.3    98  PHE98       0.0547
     64  CG        26.0490    4.4090   42.4710 C.ar   98  PHE98      -0.0202
     65  CD1       26.6210    3.6700   43.5140 C.ar   98  PHE98      -0.0042
     66  CD2       26.6090    4.3830   41.2020 C.ar   98  PHE98      -0.0042
     67  CE1       27.7910    2.9440   43.2810 C.ar   98  PHE98      -0.0003
     68  CE2       27.8080    3.6610   40.9480 C.ar   98  PHE98      -0.0003
     69  CZ        28.3700    2.9390   42.0320 C.ar   98  PHE98      -0.0000
     70  N         25.6890    7.6190   41.1190 N.am   99  ILE99      -0.1980
     71  CA        26.6010    8.2390   40.1380 C.3    99  ILE99       0.1595
     72  C         27.1840    9.5440   40.7200 C.2    99  ILE99       0.2287
     73  O         28.3790    9.8240   40.6200 O.2    99  ILE99      -0.2864
     74  CB        25.8790    8.5020   38.8180 C.3    99  ILE99       0.0276
     75  CG1       25.5160    7.1810   38.1480 C.3    99  ILE99       0.0022
     76  CG2       26.7670    9.3970   37.8720 C.3    99  ILE99       0.0022
     77  CD1       24.6270    7.4020   36.8930 C.3    99  ILE99       0.0001
     78  N         29.7180    8.8690   43.5400 N.3   102  PHE102     -0.1227
     79  CA        30.9190    8.2220   42.9600 C.3   102  PHE102      0.1736
     80  C         31.7830    9.2500   42.2470 C.2   102  PHE102      0.2595
     81  O         32.9960    9.3190   42.4980 O.2   102  PHE102     -0.2718
     82  CB        30.4510    7.1240   42.0080 C.3   102  PHE102      0.0547
     83  CG        31.5370    6.4920   41.2050 C.ar  102  PHE102     -0.0202
     84  CD1       32.4510    5.5920   41.7650 C.ar  102  PHE102     -0.0042
     85  CD2       31.6300    6.7850   39.8470 C.ar  102  PHE102     -0.0042
     86  CE1       33.4030    4.9770   40.9680 C.ar  102  PHE102     -0.0003
     87  CE2       32.6160    6.2030   39.0480 C.ar  102  PHE102     -0.0003
     88  CZ        33.5190    5.3050   39.6160 C.ar  102  PHE102     -0.0000
     89  N         31.2070   10.0010   41.3150 N.am  103  LEU103     -0.1980
     90  CA        31.9500   11.0080   40.5280 C.3   103  LEU103      0.1596
     91  C         32.4880   12.0740   41.4690 C.2   103  LEU103      0.2287
     92  O         33.6670   12.5100   41.2780 O.2   103  LEU103     -0.2864
     93  CB        31.0620   11.6420   39.4360 C.3   103  LEU103      0.0297
     94  CG        30.6870   10.6940   38.3100 C.3   103  LEU103      0.0022
     95  CD1       29.7220   11.4660   37.3690 C.3   103  LEU103      0.0001
     96  CD2       31.9430   10.1700   37.5590 C.3   103  LEU103      0.0001
     97  N         39.0860    4.0860   33.3340 N.3   156  PHE156     -0.1241
     98  CA        37.7700    4.7300   33.4600 C.3   156  PHE156      0.1605
     99  C         37.8570    6.2040   32.9970 C.2   156  PHE156      0.2264
    100  O         37.0710    6.6750   32.1520 O.2   156  PHE156     -0.2867
    101  CB        37.2450    4.6110   34.8970 C.3   156  PHE156      0.0534
    102  CG        35.9790    5.4090   35.1410 C.ar  156  PHE156     -0.0203
    103  CD1       34.7850    5.0360   34.5450 C.ar  156  PHE156     -0.0042
    104  CD2       36.0120    6.5450   35.9260 C.ar  156  PHE156     -0.0042
    105  CE1       33.6040    5.7940   34.7700 C.ar  156  PHE156     -0.0003
    106  CE2       34.8680    7.3120   36.1450 C.ar  156  PHE156     -0.0003
    107  CZ        33.6660    6.9330   35.5570 C.ar  156  PHE156     -0.0000
    108  N         36.1960    8.2130   29.5250 N.3   160  LEU160     -0.1245
    109  CA        35.2050    9.2990   29.6140 C.3   160  LEU160      0.1561
    110  C         35.5140   10.3990   28.6020 C.2   160  LEU160      0.2260
    111  O         34.6030   11.0850   28.1320 O.2   160  LEU160     -0.2867
    112  CB        35.1250    9.9100   31.0170 C.3   160  LEU160      0.0270
    113  CG        34.5320    9.1470   32.1990 C.3   160  LEU160      0.0019
    114  CD1       34.5850   10.0400   33.4430 C.3   160  LEU160      0.0001
    115  CD2       33.0880    8.6620   31.9590 C.3   160  LEU160      0.0001
    116  N         39.7900   16.3700   32.1910 N.3   171  CYS171     -0.1235
    117  CA        38.6060   15.5050   32.2520 C.3   171  CYS171      0.1677
    118  C         37.8790   15.7250   33.5880 C.2   171  CYS171      0.2270
    119  O         36.6320   15.9100   33.6100 O.2   171  CYS171     -0.2867
    120  CB        39.0330   14.0470   32.1290 C.3   171  CYS171      0.0956
    121  SG        37.6770   12.8710   32.4400 S.3   171  CYS171     -0.0801
    122  N         35.8240   18.8970   33.6570 N.3   174  LYS174     -0.1231
    123  CA        34.5570   18.7160   32.9480 C.3   174  LYS174      0.1693
    124  C         33.5430   17.9810   33.8530 C.2   174  LYS174      0.2591
    125  O         32.3510   18.3550   33.8940 O.2   174  LYS174     -0.2718
    126  CB        34.7420   17.9540   31.6340 C.3   174  LYS174      0.0285
    127  CG        35.4740   18.8110   30.5720 C.3   174  LYS174      0.0035
    128  CD        35.3920   18.1700   29.1980 C.3   174  LYS174      0.0206
    129  CE        36.3650   17.0060   29.0520 C.3   174  LYS174      0.1093
    130  NZ        36.5890   16.6490   27.6080 N.3   174  LYS174     -0.1314
    131  N         33.9930   16.9570   34.5770 N.am  175  VAL175     -0.1980
    132  CA        33.0590   16.2070   35.4720 C.3   175  VAL175      0.1595
    133  C         32.5800   17.1320   36.6020 C.2   175  VAL175      0.2287
    134  O         31.3790   17.1460   36.9740 O.2   175  VAL175     -0.2864
    135  CB        33.7510   14.9520   36.0160 C.3   175  VAL175      0.0276
    136  CG1       32.8300   14.2580   37.0360 C.3   175  VAL175      0.0022
    137  CG2       34.0810   13.9780   34.8750 C.3   175  VAL175      0.0022
    138  N         29.7890   19.2790   35.2260 N.3   178  PHE178     -0.1241
    139  CA        28.5650   18.4560   35.1230 C.3   178  PHE178      0.1605
    140  C         27.8850   18.2820   36.5100 C.2   178  PHE178      0.2264
    141  O         26.6470   18.3370   36.6410 O.2   178  PHE178     -0.2867
    142  CB        28.9380   17.0970   34.5210 C.3   178  PHE178      0.0534
    143  CG        27.8720   16.0490   34.6900 C.ar  178  PHE178     -0.0203
    144  CD1       26.7420   16.0170   33.8810 C.ar  178  PHE178     -0.0042
    145  CD2       28.0010   15.1210   35.7350 C.ar  178  PHE178     -0.0042
    146  CE1       25.7430   15.0110   34.1190 C.ar  178  PHE178     -0.0003
    147  CE2       27.0450   14.1360   35.9680 C.ar  178  PHE178     -0.0003
    148  CZ        25.9190   14.0910   35.1620 C.ar  178  PHE178     -0.0000
@<TRIPOS>BOND
     1     1     2    1
     2   130   129    1
     3     8     6   ar
     4     8    10   ar
     5   111   110    2
     6     5     2    1
     7     5     6    1
     8     2     3    1
     9   110   109    1
    10     6     7   ar
    11    10     9   ar
    12   129   128    1
    13    29    27   ar
    14    29    28   ar
    15   128   127    1
    16    27    25   ar
    17    19    20    1
    18    28    26   ar
    19   108   109    1
    20   109   112    1
    21     3     4    2
    22     7     9   ar
    23    25    24   ar
    24    20    21    1
    25    20    23    1
    26    26    24   ar
    27    24    23    1
    28    11    12    1
    29   127   126    1
    30    32    33    2
    31    32    31    1
    32    21    22    2
    33    21    30   am
    34   112   113    1
    35    30    31    1
    36    13    14    2
    37    13    12    1
    38    12    15    1
    39   126   123    1
    40    31    34    1
    41   115   113    1
    42   120   117    1
    43   120   121    1
    44   100    99    2
    45   116   117    1
    46   113   114    1
    47   117   118    1
    48    34    35    1
    49    41    42    1
    50    15    16    1
    51   123   122    1
    52   123   124    1
    53    99    98    1
    54    18    16    1
    55    16    17    1
    56    46    45    1
    57    97    98    1
    58    98   101    1
    59    37    35   ar
    60    37    39   ar
    61   118   119    2
    62    35    36   ar
    63   124   125    2
    64   124   131   am
    65   144   146   ar
    66   144   143   ar
    67    42    45    1
    68    42    43    1
    69    47    45    1
    70   146   148   ar
    71    44    43    2
    72   142   143    1
    73   142   139    1
    74   103   105   ar
    75   103   102   ar
    76   131   132    1
    77    39    40   ar
    78   143   145   ar
    79   105   107   ar
    80    43    48   am
    81   137   135    1
    82   101   102    1
    83    36    38   ar
    84   139   138    1
    85   139   140    1
    86   102   104   ar
    87   148   147   ar
    88   132   135    1
    89   132   133    1
    90   107   106   ar
    91   145   147   ar
    92    40    38   ar
    93   104   106   ar
    94   135   136    1
    95    48    49    1
    96    50    51    2
    97    50    49    1
    98   140   141    2
    99   133   134    2
   100    77    75    1
   101    49    52    1
   102    95    94    1
   103    96    94    1
   104    52    53    1
   105    76    74    1
   106    75    74    1
   107    55    53   ar
   108    55    57   ar
   109    53    54   ar
   110    94    93    1
   111    57    58   ar
   112    74    71    1
   113    87    88   ar
   114    87    85   ar
   115    54    56   ar
   116    93    90    1
   117    58    56   ar
   118    88    86   ar
   119    85    83   ar
   120    71    72    1
   121    71    70    1
   122    90    89    1
   123    90    91    1
   124    73    72    2
   125    68    66   ar
   126    68    69   ar
   127    86    84   ar
   128    70    61   am
   129    66    64   ar
   130    83    84   ar
   131    83    82    1
   132    92    91    2
   133    89    80   am
   134    82    79    1
   135    69    67   ar
   136    80    81    2
   137    80    79    1
   138    61    62    2
   139    61    60    1
   140    64    63    1
   141    64    65   ar
   142    63    60    1
   143    79    78    1
   144    60    59    1
   145    67    65   ar
