@<TRIPOS>MOLECULE
tmp/1wbgB01.pdb
 139 139 0 0 0
SMALL
GASTEIGER

@<TRIPOS>ATOM
      1  N         -0.2770   27.3400   52.6150 N.3    43  HIS43      -0.1241
      2  CA        -0.1770   25.9460   53.0590 C.3    43  HIS43       0.1621
      3  C          0.6070   25.8250   54.3670 C.2    43  HIS43       0.2264
      4  O          0.6030   24.7650   54.9950 O.2    43  HIS43      -0.2867
      5  CB         0.4460   25.0410   51.9770 C.3    43  HIS43       0.0745
      6  CG         1.9390   25.1460   51.8720 C.ar   43  HIS43       0.0817
      7  ND1        2.5620   25.9140   50.9100 N.ar   43  HIS43      -0.2268
      8  CD2        2.9340   24.5900   52.6090 C.ar   43  HIS43       0.1154
      9  CE1        3.8740   25.8360   51.0680 C.ar   43  HIS43       0.1986
     10  NE2        4.1290   25.0350   52.0870 N.ar   43  HIS43      -0.2212
     11  N         -3.0010   17.1630   55.8750 N.3    50  TRP50      -0.1241
     12  CA        -2.0500   16.9160   56.9700 C.3    50  TRP50       0.1605
     13  C         -2.6000   17.3640   58.3190 C.2    50  TRP50       0.2264
     14  O         -1.8440   17.5120   59.2720 O.2    50  TRP50      -0.2867
     15  CB        -0.7470   17.6730   56.7070 C.3    50  TRP50       0.0550
     16  CG         0.1200   17.0810   55.6420 C.ar   50  TRP50       0.0003
     17  CD1       -0.1660   16.0170   54.8390 C.ar   50  TRP50       0.0946
     18  CD2        1.4090   17.5550   55.2360 C.ar   50  TRP50       0.0152
     19  NE1        0.8800   15.7780   53.9800 N.ar   50  TRP50      -0.2442
     20  CE2        1.8600   16.7140   54.2010 C.ar   50  TRP50       0.0810
     21  CE3        2.2380   18.6060   55.6540 C.ar   50  TRP50       0.0012
     22  CZ2        3.0960   16.8890   53.5770 C.ar   50  TRP50       0.0191
     23  CZ3        3.4620   18.7760   55.0430 C.ar   50  TRP50       0.0001
     24  CH2        3.8770   17.9270   54.0060 C.ar   50  TRP50       0.0015
     25  N         17.5060   16.6510   51.1790 N.3   146  GLU146     -0.1245
     26  CA        16.2110   15.9800   51.1040 C.3   146  GLU146      0.1567
     27  C         15.9880   14.9060   52.1880 C.2   146  GLU146      0.2260
     28  O         16.8460   14.0490   52.3910 O.2   146  GLU146     -0.2867
     29  CB        16.0210   15.3640   49.7090 C.3   146  GLU146      0.0388
     30  CG        14.6290   14.8120   49.5370 C.3   146  GLU146      0.1160
     31  CD        14.3320   14.3930   48.1290 C.2   146  GLU146      0.3649
     32  OE1       14.9050   14.9600   47.1740 O.co2 146  GLU146     -0.2457
     33  OE2       13.4580   13.5270   47.9920 O.co2 146  GLU146     -0.2457
     34  N         18.1920   24.6600   45.7300 N.3   191  ASP191     -0.1225
     35  CA        16.7500   24.5440   45.8130 C.3   191  ASP191      0.1805
     36  C         16.4180   24.8560   47.2510 C.2   191  ASP191      0.2598
     37  O         17.3290   24.8560   48.1070 O.2   191  ASP191     -0.2718
     38  CB        16.3360   23.1220   45.5070 C.3   191  ASP191      0.1424
     39  CG        14.8540   22.9530   45.2710 C.2   191  ASP191      0.3668
     40  OD1       14.0880   23.9480   45.1280 O.co2 191  ASP191     -0.2456
     41  OD2       14.3860   21.7930   45.2010 O.co2 191  ASP191     -0.2456
     42  N         15.1410   25.1510   47.4800 N.am  192  ALA192     -0.1966
     43  CA        14.5710   25.1720   48.7960 C.3   192  ALA192      0.1728
     44  C         14.2180   23.7620   49.1950 C.2   192  ALA192      0.2616
     45  O         14.2760   22.8380   48.3880 O.2   192  ALA192     -0.2715
     46  CB        13.3420   26.0500   48.8290 C.3   192  ALA192      0.0334
     47  N         13.8960   23.5990   50.4670 N.am  193  CYS193     -0.1954
     48  CA        13.5990   22.2980   51.0230 C.3   193  CYS193      0.1843
     49  C         12.7180   22.4690   52.2630 C.2   193  CYS193      0.2625
     50  O         12.2330   23.5570   52.5450 O.2   193  CYS193     -0.2714
     51  CB        14.8970   21.5570   51.3680 C.3   193  CYS193      0.0997
     52  SG        14.6680   19.7480   51.5820 S.3   193  CYS193     -0.0797
     53  N         12.4820   21.3650   52.9530 N.am  194  GLU194     -0.1963
     54  CA        11.6710   21.2930   54.1510 C.3   194  GLU194      0.1733
     55  C         12.0100   22.3720   55.1510 C.2   194  GLU194      0.2616
     56  O         13.1400   22.3700   55.6420 O.2   194  GLU194     -0.2715
     57  CB        11.9960   19.9770   54.8500 C.3   194  GLU194      0.0429
     58  CG        11.1130   18.8200   54.5490 C.3   194  GLU194      0.1163
     59  CD        10.0010   18.7270   55.5540 C.2   194  GLU194      0.3649
     60  OE1       10.0490   17.8150   56.4050 O.co2 194  GLU194     -0.2457
     61  OE2        9.1090   19.5990   55.4970 O.co2 194  GLU194     -0.2457
     62  N         11.0180   23.1870   55.5220 N.am  195  GLY195     -0.1955
     63  CA        11.1710   24.3440   56.4460 C.3   195  GLY195      0.1869
     64  C         11.2790   25.7220   55.7840 C.2   195  GLY195      0.2309
     65  O         11.0710   26.7620   56.4200 O.2   195  GLY195     -0.2863
     66  N          9.5080   26.7530   53.1110 N.3   197  SER197     -0.1217
     67  CA         8.2750   27.1780   52.4220 C.3   197  SER197      0.1889
     68  C          7.6420   28.3670   53.1340 C.2   197  SER197      0.2288
     69  O          7.8240   28.5540   54.3200 O.2   197  SER197     -0.2866
     70  CB         7.2850   25.9930   52.2110 C.3   197  SER197      0.2089
     71  OG         6.3510   25.8780   53.2670 O.3   197  SER197     -0.2183
     72  N          8.0450   30.7210   48.3420 N.3   217  VAL217     -0.1231
     73  CA         8.4370   29.3150   48.2690 C.3   217  VAL217      0.1692
     74  C          7.1670   28.5470   48.5050 C.2   217  VAL217      0.2593
     75  O          6.5810   28.6710   49.5670 O.2   217  VAL217     -0.2718
     76  CB         9.5110   28.9670   49.3580 C.3   217  VAL217      0.0266
     77  CG1        9.9640   27.4970   49.2600 C.3   217  VAL217      0.0020
     78  CG2       10.7320   29.8930   49.2700 C.3   217  VAL217      0.0020
     79  N          6.7130   27.7860   47.5120 N.am  218  SER218     -0.1938
     80  CA         5.4220   27.0990   47.5810 C.3   218  SER218      0.2055
     81  C          5.5480   25.5730   47.6250 C.2   218  SER218      0.2643
     82  O          5.1350   24.9610   48.5940 O.2   218  SER218     -0.2714
     83  CB         4.5280   27.5430   46.4200 C.3   218  SER218      0.2130
     84  OG         3.2400   27.0100   46.4910 O.3   218  SER218     -0.2179
     85  N          6.1110   24.9500   46.6010 N.am  219  TRP219     -0.1959
     86  CA         6.2870   23.4860   46.6210 C.3   219  TRP219      0.1771
     87  C          7.3540   22.9850   45.6540 C.2   219  TRP219      0.2620
     88  O          7.7470   23.6710   44.7020 O.2   219  TRP219     -0.2715
     89  CB         4.9490   22.7750   46.3110 C.3   219  TRP219      0.0590
     90  CG         4.3810   23.0890   44.9320 C.ar  219  TRP219      0.0006
     91  CD1        3.6020   24.1440   44.6020 C.ar  219  TRP219      0.0946
     92  CD2        4.5250   22.3120   43.7330 C.ar  219  TRP219      0.0152
     93  NE1        3.2830   24.1040   43.2680 N.ar  219  TRP219     -0.2442
     94  CE2        3.8300   22.9830   42.7130 C.ar  219  TRP219      0.0810
     95  CE3        5.2200   21.1440   43.4040 C.ar  219  TRP219      0.0012
     96  CZ2        3.7720   22.5060   41.3970 C.ar  219  TRP219      0.0191
     97  CZ3        5.1740   20.6720   42.0890 C.ar  219  TRP219      0.0001
     98  CH2        4.4510   21.3450   41.1140 C.ar  219  TRP219      0.0015
     99  N          7.8100   21.7670   45.9170 N.am  220  GLY220     -0.1954
    100  CA         8.6900   21.0120   45.0090 C.3   220  GLY220      0.1869
    101  C          8.4520   19.5140   45.1670 C.2   220  GLY220      0.2309
    102  O          7.6010   19.1020   45.9470 O.2   220  GLY220     -0.2863
    103  N         10.6880   16.4580   46.2340 N.3   222  GLY222     -0.1210
    104  CA        12.0200   16.3820   46.8490 C.3   222  GLY222      0.1956
    105  C         12.6480   17.7590   46.9370 C.2   222  GLY222      0.2612
    106  O         11.9410   18.7680   46.8740 O.2   222  GLY222     -0.2717
    107  N         13.9720   17.7660   47.0820 N.am  223  CYS223     -0.1970
    108  CA        14.7810   18.9700   47.1190 C.3   223  CYS223      0.1712
    109  C         16.0410   18.7890   46.2640 C.2   223  CYS223      0.2296
    110  O         16.8210   17.8190   46.4230 O.2   223  CYS223     -0.2864
    111  CB        15.2130   19.2980   48.5510 C.3   223  CYS223      0.0983
    112  SG        13.8950   19.1840   49.7530 S.3   223  CYS223     -0.0798
    113  N         11.8480   24.0240   41.9140 N.3   230  GLY230     -0.1210
    114  CA        11.0290   24.5520   42.9720 C.3   230  GLY230      0.1956
    115  C          9.9950   25.4480   42.3350 C.2   230  GLY230      0.2612
    116  O         10.2930   26.1580   41.3550 O.2   230  GLY230     -0.2717
    117  N          8.7980   25.4320   42.9220 N.am  231  PHE231     -0.1962
    118  CA         7.6650   26.2260   42.4500 C.3   231  PHE231      0.1771
    119  C          7.3530   27.3040   43.4450 C.2   231  PHE231      0.2619
    120  O          7.4220   27.0700   44.6630 O.2   231  PHE231     -0.2715
    121  CB         6.4630   25.3380   42.1360 C.3   231  PHE231      0.0574
    122  CG         6.6260   24.5960   40.8430 C.ar  231  PHE231     -0.0200
    123  CD1        7.4160   23.4570   40.7710 C.ar  231  PHE231     -0.0042
    124  CD2        6.0780   25.0920   39.6790 C.ar  231  PHE231     -0.0042
    125  CE1        7.6140   22.8020   39.5740 C.ar  231  PHE231     -0.0003
    126  CE2        6.2640   24.4320   38.4690 C.ar  231  PHE231     -0.0003
    127  CZ         7.0360   23.2970   38.4120 C.ar  231  PHE231     -0.0000
    128  N          7.0720   28.5010   42.9130 N.am  232  TYR232     -0.1974
    129  CA         6.8920   29.6860   43.7200 C.3   232  TYR232      0.1639
    130  C          5.5700   30.3380   43.4030 C.2   232  TYR232      0.2290
    131  O          5.1110   30.3240   42.2460 O.2   232  TYR232     -0.2864
    132  CB         8.0520   30.6760   43.5000 C.3   232  TYR232      0.0560
    133  CG         9.3980   30.0930   43.8860 C.ar  232  TYR232     -0.0198
    134  CD1       10.0650   29.2080   43.0340 C.ar  232  TYR232     -0.0009
    135  CD2        9.9840   30.3950   45.1110 C.ar  232  TYR232     -0.0009
    136  CE1       11.2800   28.6450   43.3860 C.ar  232  TYR232      0.0417
    137  CE2       11.2040   29.8210   45.4780 C.ar  232  TYR232      0.0417
    138  CZ        11.8350   28.9380   44.6300 C.ar  232  TYR232      0.1957
    139  OH        13.0550   28.3840   44.9990 O.3   232  TYR232     -0.2866
@<TRIPOS>BOND
     1   127   126   ar
     2   127   125   ar
     3   126   124   ar
     4   125   123   ar
     5   124   122   ar
     6   123   122   ar
     7   122   121    1
     8    98    96   ar
     9    98    97   ar
    10   116   115    2
    11    96    94   ar
    12   113   114    1
    13    97    95   ar
    14   121   118    1
    15   131   130    2
    16   115   117   am
    17   115   114    1
    18   118   117    1
    19   118   119    1
    20    94    93   ar
    21    94    92   ar
    22   128   119   am
    23   128   129    1
    24   134   136   ar
    25   134   133   ar
    26    93    91   ar
    27   136   138   ar
    28   130   129    1
    29    95    92   ar
    30   119   120    2
    31   132   129    1
    32   132   133    1
    33    92    90   ar
    34   133   135   ar
    35    91    90   ar
    36   138   139    1
    37   138   137   ar
    38    88    87    2
    39    90    89    1
    40   100   101    1
    41   100    99    1
    42   135   137   ar
    43    40    39   ar
    44   101   102    2
    45    41    39   ar
    46    39    38    1
    47    38    35    1
    48    87    99   am
    49    87    86    1
    50    34    35    1
    51    35    36    1
    52   103   104    1
    53   109   110    2
    54   109   108    1
    55    89    86    1
    56    83    84    1
    57    83    80    1
    58    85    86    1
    59    85    81   am
    60   104   105    1
    61   106   105    2
    62   105   107   am
    63   107   108    1
    64   108   111    1
    65    32    31   ar
    66    36    42   am
    67    36    37    2
    68    42    43    1
    69    79    80    1
    70    79    74   am
    71    80    81    1
    72    81    82    2
    73    33    31   ar
    74    31    30    1
    75    73    72    1
    76    73    74    1
    77    73    76    1
    78    45    44    2
    79    74    75    2
    80   111   112    1
    81    43    46    1
    82    43    44    1
    83    44    47   am
    84    77    76    1
    85    78    76    1
    86    30    29    1
    87    29    26    1
    88   112    52    1
    89    47    48    1
    90     7     9   ar
    91     7     6   ar
    92    48    51    1
    93    48    49    1
    94     9    10   ar
    95    26    25    1
    96    26    27    1
    97    51    52    1
    98     6     5    1
    99     6     8   ar
   100     5     2    1
   101    10     8   ar
   102    27    28    2
   103    70    67    1
   104    70    71    1
   105    49    50    2
   106    49    53   am
   107    67    66    1
   108    67    68    1
   109     1     2    1
   110    53    54    1
   111     2     3    1
   112    68    69    2
   113    22    24   ar
   114    22    20   ar
   115    19    20   ar
   116    19    17   ar
   117    24    23   ar
   118    54    57    1
   119    54    55    1
   120    20    18   ar
   121     3     4    2
   122    58    57    1
   123    58    59    1
   124    17    16   ar
   125    23    21   ar
   126    55    62   am
   127    55    56    2
   128    18    16   ar
   129    18    21   ar
   130    61    59   ar
   131    62    63    1
   132    59    60   ar
   133    16    15    1
   134    64    65    2
   135    64    63    1
   136    11    12    1
   137    15    12    1
   138    12    13    1
   139    13    14    2
