@<TRIPOS>MOLECULE
tmp/1wbiA00.pdb
 162 154 0 0 0
SMALL
GASTEIGER

@<TRIPOS>ATOM
      1  N         64.8330   31.1070  -11.9240 N.3    12  ASN12      -0.1240
      2  CA        64.7640   29.8830  -11.1210 C.3    12  ASN12       0.1653
      3  C         63.7950   28.8700  -11.6280 C.2    12  ASN12       0.2266
      4  O         63.0710   29.1270  -12.6380 O.2    12  ASN12      -0.2867
      5  CB        64.5770   30.1760   -9.6080 C.3    12  ASN12       0.1155
      6  CG        63.1530   30.5630   -9.2030 C.2    12  ASN12       0.2627
      7  OD1       62.1730   30.3340   -9.9210 O.2    12  ASN12      -0.2716
      8  ND2       63.0470   31.1510   -8.0230 N.am   12  ASN12      -0.0877
      9  N         60.9940   27.7720  -10.6080 N.3    14  LEU14      -0.1245
     10  CA        59.5610   28.0550  -10.6050 C.3    14  LEU14       0.1561
     11  C         59.1880   29.0880  -11.6490 C.2    14  LEU14       0.2260
     12  O         58.0340   29.4860  -11.7210 O.2    14  LEU14      -0.2867
     13  CB        59.1020   28.5500   -9.2350 C.3    14  LEU14       0.0270
     14  CG        59.1370   27.5040   -8.1370 C.3    14  LEU14       0.0019
     15  CD1       58.9030   28.1400   -6.7950 C.3    14  LEU14       0.0001
     16  CD2       58.1050   26.3630   -8.3420 C.3    14  LEU14       0.0001
     17  N         60.5150   32.1670  -11.7260 N.3    16  SER16      -0.1217
     18  CA        60.7800   33.4620  -11.2260 C.3    16  SER16       0.1889
     19  C         62.0870   34.0330  -11.7930 C.2    16  SER16       0.2288
     20  O         62.9070   33.3020  -12.3500 O.2    16  SER16      -0.2866
     21  CB        60.8350   33.4560   -9.6920 C.3    16  SER16       0.2089
     22  OG        59.6420   32.9810   -9.1410 O.3    16  SER16      -0.2183
     23  N         62.9600   41.3010   -7.5240 N.3    33  TYR33      -0.1241
     24  CA        62.4660   39.9540   -7.6680 C.3    33  TYR33       0.1605
     25  C         61.1170   39.9640   -8.3300 C.2    33  TYR33       0.2264
     26  O         60.2240   40.6790   -7.8840 O.2    33  TYR33      -0.2867
     27  CB        62.3390   39.2800   -6.2700 C.3    33  TYR33       0.0534
     28  CG        62.4460   37.7710   -6.2890 C.ar   33  TYR33      -0.0201
     29  CD1       63.6630   37.1540   -5.9910 C.ar   33  TYR33      -0.0009
     30  CD2       61.3680   36.9650   -6.6200 C.ar   33  TYR33      -0.0009
     31  CE1       63.7840   35.7850   -6.0150 C.ar   33  TYR33       0.0417
     32  CE2       61.4730   35.5780   -6.6260 C.ar   33  TYR33       0.0417
     33  CZ        62.6950   34.9810   -6.3220 C.ar   33  TYR33       0.1957
     34  OH        62.7710   33.5980   -6.3620 O.3    33  TYR33      -0.2866
     35  N         58.4530   37.2460   -8.9330 N.3    35  THR35      -0.1218
     36  CA        57.9970   35.8900   -8.7300 C.3    35  THR35       0.1862
     37  C         57.0010   35.4750   -9.8080 C.2    35  THR35       0.2287
     38  O         56.2180   36.3350  -10.2880 O.2    35  THR35      -0.2866
     39  CB        57.3940   35.6210   -7.2960 C.3    35  THR35       0.1770
     40  OG1       57.1120   34.2380   -7.1130 O.3    35  THR35      -0.2211
     41  CG2       56.1050   36.4650   -7.0190 C.3    35  THR35       0.0375
     42  N         54.9650   32.9070   -9.0450 N.3    37  VAL37      -0.1231
     43  CA        53.9960   32.2260   -8.2170 C.3    37  VAL37       0.1692
     44  C         53.7580   33.0090   -6.9340 C.2    37  VAL37       0.2592
     45  O         54.6120   33.7830   -6.5050 O.2    37  VAL37      -0.2718
     46  CB        54.3970   30.7320   -7.9180 C.3    37  VAL37       0.0266
     47  CG1       54.6280   29.9280   -9.2080 C.3    37  VAL37       0.0020
     48  CG2       55.6760   30.6480   -7.0740 C.3    37  VAL37       0.0020
     49  N         52.6030   32.8210   -6.3120 N.am   38  ALA38      -0.1966
     50  CA        52.2240   33.5270   -5.0900 C.3    38  ALA38       0.1728
     51  C         50.9840   32.9120   -4.4890 C.2    38  ALA38       0.2616
     52  O         50.2770   32.1300   -5.1540 O.2    38  ALA38      -0.2715
     53  CB        51.9940   35.0560   -5.3760 C.3    38  ALA38       0.0334
     54  N         50.6820   33.2750   -3.2490 N.am   39  ASP39      -0.1957
     55  CA        49.3900   32.9360   -2.6560 C.3    39  ASP39       0.1840
     56  C         48.2270   33.5290   -3.4690 C.2    39  ASP39       0.2622
     57  O         47.1850   32.8800   -3.6170 O.2    39  ASP39      -0.2715
     58  CB        49.2850   33.4110   -1.2120 C.3    39  ASP39       0.1450
     59  CG        49.9720   32.4890   -0.2540 C.2    39  ASP39       0.3671
     60  OD1       49.5690   31.3090   -0.1710 O.co2  39  ASP39      -0.2456
     61  OD2       50.9140   32.9220    0.4330 O.co2  39  ASP39      -0.2456
     62  N         48.4040   34.7410   -3.9790 N.am   40  ASN40      -0.1972
     63  CA        47.3950   35.4180   -4.8020 C.3    40  ASN40       0.1688
     64  C         48.0950   35.9230   -6.0560 C.2    40  ASN40       0.2292
     65  O         48.5430   37.0560   -6.1230 O.2    40  ASN40      -0.2864
     66  CB        46.7780   36.5800   -4.0190 C.3    40  ASN40       0.1181
     67  CG        46.0220   36.1040   -2.7820 C.2    40  ASN40       0.2629
     68  OD1       44.8860   35.6220   -2.8890 O.2    40  ASN40      -0.2716
     69  ND2       46.6560   36.2000   -1.6010 N.am   40  ASN40      -0.0877
     70  N         57.8420   41.4910   -0.1390 N.3    68  TRP68      -0.1241
     71  CA        56.8100   41.4060   -1.1760 C.3    68  TRP68       0.1605
     72  C         55.9850   42.6900   -1.1540 C.2    68  TRP68       0.2264
     73  O         55.4490   43.0800   -0.1270 O.2    68  TRP68      -0.2867
     74  CB        55.9540   40.1700   -0.9900 C.3    68  TRP68       0.0550
     75  CG        56.7910   38.9120   -1.0580 C.ar   68  TRP68       0.0003
     76  CD1       57.0920   38.0640   -0.0260 C.ar   68  TRP68       0.0946
     77  CD2       57.5080   38.4190   -2.1870 C.ar   68  TRP68       0.0152
     78  NE1       57.8990   37.0600   -0.4460 N.ar   68  TRP68      -0.2442
     79  CE2       58.1830   37.2470   -1.7800 C.ar   68  TRP68       0.0810
     80  CE3       57.6000   38.8070   -3.5340 C.ar   68  TRP68       0.0012
     81  CZ2       58.9470   36.4970   -2.6440 C.ar   68  TRP68       0.0191
     82  CZ3       58.3700   38.0720   -4.3920 C.ar   68  TRP68       0.0001
     83  CH2       59.0420   36.9150   -3.9480 C.ar   68  TRP68       0.0015
     84  N         53.1600   43.2760   -2.6770 N.3    70  PHE70      -0.1227
     85  CA        51.7520   42.9980   -2.9680 C.3    70  PHE70       0.1736
     86  C         51.0410   42.1430   -1.8940 C.2    70  PHE70       0.2596
     87  O         49.9130   41.7150   -2.0750 O.2    70  PHE70      -0.2718
     88  CB        51.6230   42.3750   -4.3460 C.3    70  PHE70       0.0547
     89  CG        52.3950   41.0820   -4.5000 C.ar   70  PHE70      -0.0202
     90  CD1       51.7880   39.8770   -4.2280 C.ar   70  PHE70      -0.0042
     91  CD2       53.7140   41.0960   -4.9660 C.ar   70  PHE70      -0.0042
     92  CE1       52.5020   38.6960   -4.3540 C.ar   70  PHE70      -0.0003
     93  CE2       54.3820   39.9180   -5.1170 C.ar   70  PHE70      -0.0003
     94  CZ        53.7740   38.7360   -4.8080 C.ar   70  PHE70      -0.0000
     95  N         51.7640   41.8090   -0.8050 N.am   71  SER71      -0.1952
     96  CA        51.1870   41.0920    0.3050 C.3    71  SER71       0.1924
     97  C         51.9310   41.5190    1.5490 C.2    71  SER71       0.2314
     98  O         52.9070   42.2760    1.4650 O.2    71  SER71      -0.2863
     99  CB        51.3060   39.5840    0.1240 C.3    71  SER71       0.2116
    100  OG        52.6510   39.1400    0.2780 O.3    71  SER71      -0.2180
    101  N         53.6180   39.3780    3.3470 N.3    73  SER73      -0.1217
    102  CA        54.6490   38.3400    3.4850 C.3    73  SER73       0.1889
    103  C         56.0840   38.8600    3.2830 C.2    73  SER73       0.2288
    104  O         56.3050   39.8950    2.6340 O.2    73  SER73      -0.2866
    105  CB        54.3820   37.2400    2.4250 C.3    73  SER73       0.2089
    106  OG        55.3130   36.1480    2.4280 O.3    73  SER73      -0.2183
    107  N         59.9520   36.8270    2.3020 N.3    75  SER75      -0.1217
    108  CA        60.7190   35.5880    2.0830 C.3    75  SER75       0.1889
    109  C         62.2070   35.8340    2.2780 C.2    75  SER75       0.2288
    110  O         62.6760   36.9220    2.0550 O.2    75  SER75      -0.2866
    111  CB        60.5070   35.0330    0.6890 C.3    75  SER75       0.2089
    112  OG        59.1540   34.5800    0.5440 O.3    75  SER75      -0.2183
    113  N         66.0230   33.7830    1.2970 N.3    77  PHE77      -0.1241
    114  CA        66.7300   32.7500    0.5490 C.3    77  PHE77       0.1605
    115  C         68.1510   32.6610    1.0500 C.2    77  PHE77       0.2264
    116  O         68.8060   33.6840    1.2650 O.2    77  PHE77      -0.2867
    117  CB        66.7600   33.1270   -0.9510 C.3    77  PHE77       0.0534
    118  CG        65.4170   33.1190   -1.6660 C.ar   77  PHE77      -0.0203
    119  CD1       65.0910   32.0870   -2.4890 C.ar   77  PHE77      -0.0042
    120  CD2       64.4860   34.1260   -1.4590 C.ar   77  PHE77      -0.0042
    121  CE1       63.8470   32.0900   -3.1730 C.ar   77  PHE77      -0.0003
    122  CE2       63.2400   34.0920   -2.1320 C.ar   77  PHE77      -0.0003
    123  CZ        62.9520   33.0780   -2.9260 C.ar   77  PHE77      -0.0000
    124  N         64.7230   28.2980    1.0380 N.3    95  TRP95      -0.1241
    125  CA        63.9890   29.4860    1.4120 C.3    95  TRP95       0.1605
    126  C         62.9770   29.2150    2.4800 C.2    95  TRP95       0.2264
    127  O         62.5010   28.0720    2.6610 O.2    95  TRP95      -0.2867
    128  CB        63.3270   30.1790    0.1770 C.3    95  TRP95       0.0550
    129  CG        62.4000   29.3380   -0.6600 C.ar   95  TRP95       0.0003
    130  CD1       62.6950   28.8000   -1.8760 C.ar   95  TRP95       0.0946
    131  CD2       61.0490   28.9690   -0.3700 C.ar   95  TRP95       0.0152
    132  NE1       61.6070   28.0970   -2.3560 N.ar   95  TRP95      -0.2442
    133  CE2       60.5770   28.2140   -1.4560 C.ar   95  TRP95       0.0810
    134  CE3       60.1630   29.2760    0.6680 C.ar   95  TRP95       0.0012
    135  CZ2       59.2620   27.6690   -1.4830 C.ar   95  TRP95       0.0191
    136  CZ3       58.8860   28.7730    0.6310 C.ar   95  TRP95       0.0001
    137  CH2       58.4330   27.9720   -0.4520 C.ar   95  TRP95       0.0015
    138  N         59.3060   31.2850    3.6270 N.3    97  GLN97      -0.1245
    139  CA        58.3290   32.3330    3.3470 C.3    97  GLN97       0.1566
    140  C         57.4950   32.4900    4.6040 C.2    97  GLN97       0.2260
    141  O         56.8630   31.5550    5.0600 O.2    97  GLN97      -0.2867
    142  CB        57.4300   32.0080    2.1580 C.3    97  GLN97       0.0367
    143  CG        56.4270   33.1320    1.9450 C.3    97  GLN97       0.0905
    144  CD        55.4330   32.8720    0.8490 C.2    97  GLN97       0.2608
    145  OE1       55.4080   31.7900    0.2920 O.2    97  GLN97      -0.2717
    146  NE2       54.5460   33.8510    0.5940 N.am   97  GLN97      -0.0878
    147  N         54.2930   34.1330    6.3840 N.3    99  LEU99      -0.1245
    148  CA        52.9650   34.7320    6.2400 C.3    99  LEU99       0.1561
    149  C         52.6430   35.5420    7.4960 C.2    99  LEU99       0.2260
    150  O         53.1150   35.2550    8.6060 O.2    99  LEU99      -0.2867
    151  CB        51.8920   33.6640    6.0550 C.3    99  LEU99       0.0270
    152  CG        52.0360   32.8150    4.7910 C.3    99  LEU99       0.0019
    153  CD1       51.0720   31.6400    4.8240 C.3    99  LEU99       0.0001
    154  CD2       51.7870   33.6730    3.5790 C.3    99  LEU99       0.0001
    155  N         65.0730   26.3470   -4.2600 N.3   116  ASN116     -0.1240
    156  CA        65.0990   26.8520   -5.6210 C.3   116  ASN116      0.1653
    157  C         66.5090   26.7830   -6.1400 C.2   116  ASN116      0.2266
    158  O         67.4670   27.1270   -5.4280 O.2   116  ASN116     -0.2867
    159  CB        64.6480   28.2980   -5.7320 C.3   116  ASN116      0.1155
    160  CG        63.1390   28.4930   -5.8430 C.2   116  ASN116      0.2627
    161  OD1       62.6070   29.2690   -5.1060 O.2   116  ASN116     -0.2716
    162  ND2       62.4900   27.9060   -6.8640 N.am  116  ASN116     -0.0877
@<TRIPOS>BOND
     1     4     3    2
     2    20    19    2
     3     1     2    1
     4    19    18    1
     5    17    18    1
     6    12    11    2
     7    11    10    1
     8     3     2    1
     9    18    21    1
    10     2     5    1
    11     9    10    1
    12    10    13    1
    13    38    37    2
    14     7     6    2
    15    37    36    1
    16    21    22    1
    17     5     6    1
    18    13    14    1
    19    47    46    1
    20     6     8   am
    21    42    43    1
    22    35    36    1
    23    36    39    1
    24    16    14    1
    25    25    26    2
    26    25    24    1
    27    43    46    1
    28    43    44    1
    29    14    15    1
    30    46    48    1
    31    24    23    1
    32    24    27    1
    33    39    40    1
    34    39    41    1
    35    44    45    2
    36    44    49   am
    37   162   160   am
    38    32    30   ar
    39    32    33   ar
    40    30    28   ar
    41    34    33    1
    42    33    31   ar
    43    49    50    1
    44    28    27    1
    45    28    29   ar
    46   157   156    1
    47   157   158    2
    48    65    64    2
    49    64    63    1
    50    31    29   ar
    51   160   159    1
    52   160   161    2
    53   159   156    1
    54   156   155    1
    55    53    50    1
    56    52    51    2
    57    93    91   ar
    58    93    94   ar
    59    50    51    1
    60    91    89   ar
    61    94    92   ar
    62    63    66    1
    63    63    62    1
    64    89    88    1
    65    89    90   ar
    66    51    54   am
    67    82    83   ar
    68    82    80   ar
    69    92    90   ar
    70    88    85    1
    71    66    67    1
    72    62    56   am
    73    83    81   ar
    74    57    56    2
    75    80    77   ar
    76    56    55    1
    77    54    55    1
    78   121   123   ar
    79   121   119   ar
    80    85    84    1
    81    85    86    1
    82   123   122   ar
    83    68    67    2
    84    67    69   am
    85    55    58    1
    86    81    79   ar
    87   119   118   ar
    88   132   130   ar
    89   132   133   ar
    90    77    79   ar
    91    77    75   ar
    92   122   120   ar
    93    87    86    2
    94    86    95   am
    95   130   129   ar
    96    79    78   ar
    97   118   120   ar
    98   118   117    1
    99   135   133   ar
   100   135   137   ar
   101   133   131   ar
   102    58    59    1
   103    71    72    1
   104    71    74    1
   105    71    70    1
   106    72    73    2
   107    75    74    1
   108    75    76   ar
   109   117   114    1
   110    95    96    1
   111   129   131   ar
   112   129   128    1
   113   137   136   ar
   114    78    76   ar
   115   131   134   ar
   116    59    60   ar
   117    59    61   ar
   118    99   100    1
   119    99    96    1
   120   128   125    1
   121   145   144    2
   122    96    97    1
   123   112   111    1
   124   114   115    1
   125   114   113    1
   126   146   144   am
   127   136   134   ar
   128   111   108    1
   129   144   143    1
   130   124   125    1
   131   115   116    2
   132   125   126    1
   133    98    97    2
   134   143   142    1
   135   110   109    2
   136   108   109    1
   137   108   107    1
   138   142   139    1
   139   105   106    1
   140   105   102    1
   141   126   127    2
   142   104   103    2
   143   103   102    1
   144   139   138    1
   145   139   140    1
   146   101   102    1
   147   154   152    1
   148   140   141    2
   149   152   153    1
   150   152   151    1
   151   151   148    1
   152   148   147    1
   153   148   149    1
   154   149   150    2
