@<TRIPOS>MOLECULE
tmp/1wbjA00.pdb
 124 118 0 0 0
SMALL
GASTEIGER

@<TRIPOS>ATOM
      1  N         44.9910   32.9730   16.3220 N.3    22  PHE22      -0.1241
      2  CA        46.2560   32.6780   16.9670 C.3    22  PHE22       0.1605
      3  C         47.1880   33.9080   16.9260 C.2    22  PHE22       0.2264
      4  O         47.2760   34.5930   15.8890 O.2    22  PHE22      -0.2867
      5  CB        46.9430   31.5230   16.2700 C.3    22  PHE22       0.0534
      6  CG        48.3790   31.3560   16.6750 C.ar   22  PHE22      -0.0203
      7  CD1       49.3950   32.1020   16.0790 C.ar   22  PHE22      -0.0042
      8  CD2       48.7190   30.4810   17.7070 C.ar   22  PHE22      -0.0042
      9  CE1       50.7570   31.9210   16.5020 C.ar   22  PHE22      -0.0003
     10  CE2       50.0160   30.2800   18.1330 C.ar   22  PHE22      -0.0003
     11  CZ        51.0420   30.9880   17.5660 C.ar   22  PHE22      -0.0000
     12  N         44.0590   31.0970   20.6760 N.3    49  GLU49      -0.1245
     13  CA        45.1140   30.0690   20.5750 C.3    49  GLU49       0.1567
     14  C         46.3800   30.9380   20.7010 C.2    49  GLU49       0.2260
     15  O         46.5140   31.9250   19.9320 O.2    49  GLU49      -0.2867
     16  CB        45.0620   29.4110   19.2180 C.3    49  GLU49       0.0388
     17  CG        45.9540   28.2050   19.2560 C.3    49  GLU49       0.1160
     18  CD        45.0150   27.0010   19.3740 C.2    49  GLU49       0.3649
     19  OE1       43.9250   27.2210   19.9240 O.co2  49  GLU49      -0.2457
     20  OE2       45.3410   25.8760   18.9660 O.co2  49  GLU49      -0.2457
     21  N         56.2080   25.7810   12.0820 N.3    60  ASP60      -0.1239
     22  CA        55.7790   27.0960   11.5980 C.3    60  ASP60       0.1674
     23  C         56.4410   27.6140   10.3320 C.2    60  ASP60       0.2266
     24  O         57.6470   27.5040   10.1820 O.2    60  ASP60      -0.2867
     25  CB        55.9620   28.1660   12.7310 C.3    60  ASP60       0.1410
     26  CG        54.9200   28.0160   13.7960 C.2    60  ASP60       0.3668
     27  OD1       53.7020   28.1970   13.5050 O.co2  60  ASP60      -0.2456
     28  OD2       55.3000   27.8140   15.0060 O.co2  60  ASP60      -0.2456
     29  N         55.0910   33.0190   11.1550 N.3    64  ILE64      -0.1245
     30  CA        55.2050   32.7890   12.5880 C.3    64  ILE64       0.1561
     31  C         56.6940   32.6920   13.0410 C.2    64  ILE64       0.2260
     32  O         57.0170   33.0810   14.1570 O.2    64  ILE64      -0.2867
     33  CB        54.2040   31.7180   13.0750 C.3    64  ILE64       0.0252
     34  CG1       52.7790   32.3500   12.9620 C.3    64  ILE64       0.0019
     35  CG2       54.5060   31.3610   14.5000 C.3    64  ILE64       0.0019
     36  CD1       51.7310   31.3260   12.9870 C.3    64  ILE64       0.0001
     37  N         49.5720   26.7760   22.1630 N.3   100  LEU100     -0.1245
     38  CA        50.1280   25.8930   21.1270 C.3   100  LEU100      0.1561
     39  C         51.6230   25.9800   21.4520 C.2   100  LEU100      0.2260
     40  O         52.2470   27.0370   21.3420 O.2   100  LEU100     -0.2867
     41  CB        49.7450   26.3650   19.7010 C.3   100  LEU100      0.0270
     42  CG        50.0740   25.3940   18.5580 C.3   100  LEU100      0.0019
     43  CD1       49.3280   25.7820   17.2710 C.3   100  LEU100      0.0001
     44  CD2       51.5330   25.3080   18.3350 C.3   100  LEU100      0.0001
     45  N         42.1090   19.4230   16.8500 N.3   175  TYR175     -0.1241
     46  CA        42.6970   20.3570   15.8700 C.3   175  TYR175      0.1605
     47  C         42.7160   19.6600   14.5380 C.2   175  TYR175      0.2264
     48  O         43.5450   18.7670   14.3370 O.2   175  TYR175     -0.2867
     49  CB        44.1070   20.7480   16.3350 C.3   175  TYR175      0.0534
     50  CG        44.6780   21.9780   15.6490 C.ar  175  TYR175     -0.0201
     51  CD1       44.8520   21.9690   14.3060 C.ar  175  TYR175     -0.0009
     52  CD2       45.0980   23.0870   16.3970 C.ar  175  TYR175     -0.0009
     53  CE1       45.3880   23.0760   13.6160 C.ar  175  TYR175      0.0417
     54  CE2       45.6290   24.1880   15.7470 C.ar  175  TYR175      0.0417
     55  CZ        45.7490   24.1670   14.3640 C.ar  175  TYR175      0.1957
     56  OH        46.2880   25.2260   13.6500 O.3   175  TYR175     -0.2866
     57  N         52.6020   26.0540    9.2670 N.3   183  THR183     -0.1203
     58  CA        51.6290   27.1650    9.2780 C.3   183  THR183      0.1994
     59  C         51.9430   28.1840    8.1630 C.2   183  THR183      0.2618
     60  O         53.1250   28.3530    7.7090 O.2   183  THR183     -0.2717
     61  CB        51.6210   27.8560   10.6490 C.3   183  THR183      0.1784
     62  OG1       52.8880   28.4320   10.9220 O.3   183  THR183     -0.2211
     63  CG2       51.2760   26.8810   11.8040 C.3   183  THR183      0.0376
     64  N         50.8950   28.8960    7.6960 N.am  184  GLY184     -0.1942
     65  CA        51.1410   29.9650    6.7030 C.3   184  GLY184      0.2014
     66  C         49.8500   30.2520    5.9780 C.2   184  GLY184      0.2638
     67  O         49.1380   29.3110    5.5470 O.2   184  GLY184     -0.2714
     68  N         49.5760   31.5480    5.8430 N.am  185  ALA185     -0.1977
     69  CA        48.3690   32.0460    5.2340 C.3   185  ALA185      0.1597
     70  C         48.4210   31.9350    3.7080 C.2   185  ALA185      0.2287
     71  O         47.3620   31.8960    3.0690 O.2   185  ALA185     -0.2864
     72  CB        48.1190   33.5230    5.6680 C.3   185  ALA185      0.0319
     73  N         45.3070   25.8660    9.9650 N.3   212  PHE212     -0.1227
     74  CA        46.3890   25.9390    8.9410 C.3   212  PHE212      0.1736
     75  C         45.8030   26.5020    7.6380 C.2   212  PHE212      0.2596
     76  O         44.8550   25.9040    7.0420 O.2   212  PHE212     -0.2718
     77  CB        47.1000   24.6030    8.6230 C.3   212  PHE212      0.0547
     78  CG        48.1970   24.1890    9.6070 C.ar  212  PHE212     -0.0202
     79  CD1       48.0740   24.3890   10.9720 C.ar  212  PHE212     -0.0042
     80  CD2       49.3190   23.5530    9.1560 C.ar  212  PHE212     -0.0042
     81  CE1       49.0620   23.9840   11.8750 C.ar  212  PHE212     -0.0003
     82  CE2       50.3200   23.1330   10.0420 C.ar  212  PHE212     -0.0003
     83  CZ        50.2000   23.3490   11.3920 C.ar  212  PHE212     -0.0000
     84  N         46.3720   27.6470    7.2150 N.am  213  GLY213     -0.1942
     85  CA        45.9890   28.2800    5.9360 C.3   213  GLY213      0.2014
     86  C         44.6430   29.0540    5.9320 C.2   213  GLY213      0.2638
     87  O         44.2290   29.4900    4.8460 O.2   213  GLY213     -0.2714
     88  N         43.9180   29.1860    7.0520 N.am  214  ILE214     -0.1977
     89  CA        42.5950   29.8480    7.0550 C.3   214  ILE214      0.1596
     90  C         42.8330   31.3420    7.1240 C.2   214  ILE214      0.2287
     91  O         43.2850   31.8680    8.1920 O.2   214  ILE214     -0.2864
     92  CB        41.7810   29.4070    8.3150 C.3   214  ILE214      0.0276
     93  CG1       41.5030   27.9240    8.3670 C.3   214  ILE214      0.0022
     94  CG2       40.4560   30.2080    8.3970 C.3   214  ILE214      0.0022
     95  CD1       40.5660   27.4360    7.3930 C.3   214  ILE214      0.0001
     96  N         40.4320   28.0870   13.1020 N.3   232  ILE232     -0.1231
     97  CA        41.5350   28.8690   13.7040 C.3   232  ILE232      0.1692
     98  C         42.3090   29.5830   12.5920 C.2   232  ILE232      0.2593
     99  O         42.5750   28.9410   11.5090 O.2   232  ILE232     -0.2718
    100  CB        42.5340   27.8850   14.4300 C.3   232  ILE232      0.0266
    101  CG1       41.7980   27.2640   15.6120 C.3   232  ILE232      0.0019
    102  CG2       43.8370   28.6400   14.9270 C.3   232  ILE232      0.0020
    103  CD1       42.5770   25.9070   16.1240 C.3   232  ILE232      0.0001
    104  N         42.6870   30.8340   12.8670 N.am  233  SER233     -0.1938
    105  CA        43.5120   31.6130   11.9040 C.3   233  SER233      0.2055
    106  C         44.6900   32.2540   12.6130 C.2   233  SER233      0.2644
    107  O         44.4830   33.0060   13.5500 O.2   233  SER233     -0.2714
    108  CB        42.6670   32.7390   11.3100 C.3   233  SER233      0.2130
    109  OG        43.4080   33.4870   10.3400 O.3   233  SER233     -0.2179
    110  N         45.9230   31.9560   12.1810 N.am  234  GLY234     -0.1939
    111  CA        47.0400   32.5300   12.9110 C.3   234  GLY234      0.2014
    112  C         47.8860   33.4130   12.0170 C.2   234  GLY234      0.2640
    113  O         47.9720   34.6290   12.2380 O.2   234  GLY234     -0.2714
    114  N         48.5160   32.8020   10.9890 N.am  235  SER235     -0.1935
    115  CA        49.3530   33.5990   10.0920 C.3   235  SER235      0.2055
    116  C         48.6560   34.8120    9.5270 C.2   235  SER235      0.2642
    117  O         49.2800   35.8730    9.3690 O.2   235  SER235     -0.2714
    118  CB        49.8940   32.7100    8.9230 C.3   235  SER235      0.2130
    119  OG        50.7900   31.7770    9.4910 O.3   235  SER235     -0.2179
    120  N         47.3960   34.6730    9.1790 N.am  236  ALA236     -0.1977
    121  CA        46.6800   35.8350    8.6660 C.3   236  ALA236      0.1597
    122  C         46.6280   36.9610    9.6620 C.2   236  ALA236      0.2287
    123  O         46.7740   38.1330    9.2680 O.2   236  ALA236     -0.2864
    124  CB        45.2950   35.4770    8.2090 C.3   236  ALA236      0.0319
@<TRIPOS>BOND
     1    71    70    2
     2    70    69    1
     3    87    86    2
     4    69    72    1
     5    69    68    1
     6    67    66    2
     7    68    66   am
     8    86    85    1
     9    86    88   am
    10    85    84    1
    11    66    65    1
    12    65    64    1
    13    76    75    2
    14    88    89    1
    15    89    90    1
    16    89    92    1
    17    90    91    2
    18    84    75   am
    19    95    93    1
    20    75    74    1
    21    64    59   am
    22    60    59    2
    23    59    58    1
    24   124   121    1
    25    92    93    1
    26    92    94    1
    27    77    74    1
    28    77    78    1
    29   121   120    1
    30   121   122    1
    31   118   119    1
    32   118   115    1
    33    74    73    1
    34    80    78   ar
    35    80    82   ar
    36   120   116   am
    37    57    58    1
    38   123   122    2
    39    58    61    1
    40   117   116    2
    41   116   115    1
    42    78    79   ar
    43    82    83   ar
    44   115   114    1
    45    24    23    2
    46    23    22    1
    47   109   108    1
    48    61    62    1
    49    61    63    1
    50    79    81   ar
    51   114   112   am
    52    29    30    1
    53   108   105    1
    54    83    81   ar
    55    99    98    2
    56    22    21    1
    57    22    25    1
    58   105   106    1
    59   105   104    1
    60   112   113    2
    61   112   111    1
    62   110   106   am
    63   110   111    1
    64    30    31    1
    65    30    33    1
    66    98   104   am
    67    98    97    1
    68   106   107    2
    69    25    26    1
    70    34    36    1
    71    34    33    1
    72    31    32    2
    73    33    35    1
    74    96    97    1
    75    27    26   ar
    76    53    51   ar
    77    53    55   ar
    78    56    55    1
    79    97   100    1
    80    26    28   ar
    81    51    50   ar
    82    48    47    2
    83    55    54   ar
    84   100   102    1
    85   100   101    1
    86    47    46    1
    87   101   103    1
    88    50    49    1
    89    50    52   ar
    90    54    52   ar
    91    46    49    1
    92    46    45    1
    93     4     3    2
    94     7     9   ar
    95     7     6   ar
    96     5     6    1
    97     5     2    1
    98     1     2    1
    99     9    11   ar
   100     6     8   ar
   101     3     2    1
   102    43    42    1
   103    11    10   ar
   104     8    10   ar
   105    44    42    1
   106    42    41    1
   107    20    18   ar
   108    16    17    1
   109    16    13    1
   110    17    18    1
   111    18    19   ar
   112    41    38    1
   113    15    14    2
   114    13    12    1
   115    13    14    1
   116    38    39    1
   117    38    37    1
   118    40    39    2
