@<TRIPOS>MOLECULE
tmp/1wbkB00.pdb
 113 105 0 0 0
SMALL
GASTEIGER

@<TRIPOS>ATOM
      1  N          9.3200   34.4800   -1.3470 N.3     8  ARG8       -0.1245
      2  CA        10.0690   33.2360   -1.4910 C.3     8  ARG8        0.1563
      3  C         10.9720   33.3090   -2.7150 C.2     8  ARG8        0.2260
      4  O         10.5580   33.7840   -3.7750 O.2     8  ARG8       -0.2867
      5  CB         9.1170   32.0500   -1.6130 C.3     8  ARG8        0.0307
      6  CG         8.4600   31.6820   -0.3100 C.3     8  ARG8        0.0489
      7  CD         7.5670   30.4660   -0.4700 C.3     8  ARG8        0.2205
      8  NE         7.1300   29.9640    0.8260 N.pl3   8  ARG8       -0.0865
      9  CZ         6.2730   28.9640    0.9870 C.cat   8  ARG8        0.5346
     10  NH1        5.7570   28.3580   -0.0760 N.pl3   8  ARG8        0.1354
     11  NH2        5.9360   28.5680    2.2100 N.pl3   8  ARG8        0.1354
     12  N         12.4560   26.3330   -5.2140 N.3    23  LEU23      -0.1245
     13  CA        12.9020   27.2950   -4.2230 C.3    23  LEU23       0.1561
     14  C         14.3950   27.1750   -3.9540 C.2    23  LEU23       0.2260
     15  O         14.9130   26.0700   -3.7930 O.2    23  LEU23      -0.2867
     16  CB        12.1260   27.0550   -2.9300 C.3    23  LEU23       0.0270
     17  CG        12.1800   28.0500   -1.7750 C.3    23  LEU23       0.0019
     18  CD1       11.3990   29.3050   -2.1190 C.3    23  LEU23       0.0001
     19  CD2       11.5750   27.3840   -0.5460 C.3    23  LEU23       0.0001
     20  N         16.9770   27.0940   -1.5630 N.3    25  ASP25      -0.1239
     21  CA        16.9660   26.8790   -0.1240 C.3    25  ASP25       0.1674
     22  C         18.3080   26.5870    0.5380 C.2    25  ASP25       0.2266
     23  O         18.7820   25.4540    0.5140 O.2    25  ASP25      -0.2867
     24  CB        15.9910   25.7380    0.1600 C.3    25  ASP25       0.1410
     25  CG        15.7320   25.5400    1.6260 C.2    25  ASP25       0.3668
     26  OD1       16.3500   26.2450    2.4500 O.co2  25  ASP25      -0.2456
     27  OD2       14.8990   24.6720    1.9400 O.co2  25  ASP25      -0.2456
     28  N         18.8800   26.2650    3.4980 N.3    27  GLY27      -0.1210
     29  CA        18.6760   25.3910    4.6440 C.3    27  GLY27       0.1956
     30  C         18.6010   23.9120    4.2850 C.2    27  GLY27       0.2612
     31  O         18.5710   23.0520    5.1680 O.2    27  GLY27      -0.2717
     32  N         18.5680   23.6150    2.9900 N.am   28  ALA28      -0.1965
     33  CA        18.4960   22.2350    2.5090 C.3    28  ALA28       0.1728
     34  C         19.8760   21.7500    2.0760 C.2    28  ALA28       0.2616
     35  O         20.5430   22.4100    1.2800 O.2    28  ALA28      -0.2715
     36  CB        17.5190   22.1390    1.3410 C.3    28  ALA28       0.0334
     37  N         20.3090   20.6020    2.5980 N.am   29  ASP29      -0.1957
     38  CA        21.6240   20.0600    2.2330 C.3    29  ASP29       0.1840
     39  C         21.6050   19.4940    0.8150 C.2    29  ASP29       0.2622
     40  O         22.5990   19.5710    0.0920 O.2    29  ASP29      -0.2715
     41  CB        22.0520   18.9240    3.1710 C.3    29  ASP29       0.1450
     42  CG        22.0760   19.3290    4.6290 C.2    29  ASP29       0.3671
     43  OD1       22.5760   20.4240    4.9560 O.co2  29  ASP29      -0.2456
     44  OD2       21.6050   18.5260    5.4530 O.co2  29  ASP29      -0.2456
     45  N         20.4690   18.9190    0.4330 N.am   30  ASP30      -0.1971
     46  CA        20.3150   18.3060   -0.8770 C.3    30  ASP30       0.1709
     47  C         19.1440   18.9000   -1.6450 C.2    30  ASP30       0.2293
     48  O         18.3610   19.6850   -1.1120 O.2    30  ASP30      -0.2864
     49  CB        20.0890   16.7990   -0.7230 C.3    30  ASP30       0.1436
     50  CG        21.1140   16.1410    0.1800 C.2    30  ASP30       0.3671
     51  OD1       22.3170   16.2600   -0.1170 O.co2  30  ASP30      -0.2456
     52  OD2       20.7060   15.5120    1.1830 O.co2  30  ASP30      -0.2456
     53  N         15.6490   18.2810   -3.6020 N.3    32  VAL32      -0.1245
     54  CA        14.5300   17.3460   -3.6190 C.3    32  VAL32       0.1561
     55  C         13.3970   17.8970   -4.4580 C.2    32  VAL32       0.2260
     56  O         12.9690   19.0340   -4.2710 O.2    32  VAL32      -0.2867
     57  CB        14.0060   17.0740   -2.1920 C.3    32  VAL32       0.0252
     58  CG1       12.9410   15.9710   -2.2240 C.3    32  VAL32       0.0019
     59  CG2       15.1530   16.6580   -1.3040 C.3    32  VAL32       0.0019
     60  N         15.6210   11.6650    4.6040 N.3    47  ILE47      -0.1231
     61  CA        16.0210   13.0250    4.9260 C.3    47  ILE47       0.1692
     62  C         15.0800   13.5440    5.9980 C.2    47  ILE47       0.2593
     63  O         13.8830   13.2690    5.9670 O.2    47  ILE47      -0.2718
     64  CB        15.9640   13.9550    3.6840 C.3    47  ILE47       0.0266
     65  CG1       14.5640   13.9270    3.0670 C.3    47  ILE47       0.0019
     66  CG2       17.0210   13.5290    2.6660 C.3    47  ILE47       0.0020
     67  CD1       14.3670   14.9140    1.9220 C.3    47  ILE47       0.0001
     68  N         15.6270   14.2870    6.9540 N.am   48  GLY48      -0.1942
     69  CA        14.8090   14.8130    8.0280 C.3    48  GLY48       0.2014
     70  C         14.6100   16.3080    7.9150 C.2    48  GLY48       0.2639
     71  O         15.5670   17.0550    7.7230 O.2    48  GLY48      -0.2714
     72  N         13.3580   16.7380    8.0160 N.am   49  GLY49      -0.1939
     73  CA        13.0470   18.1520    7.9390 C.3    49  GLY49       0.2014
     74  C         12.5040   18.6260    9.2710 C.2    49  GLY49       0.2638
     75  O         12.6630   17.9490   10.2870 O.2    49  GLY49      -0.2714
     76  N         11.8420   19.7740    9.2810 N.am   50  ILE50      -0.1977
     77  CA        11.3110   20.2970   10.5300 C.3    50  ILE50       0.1596
     78  C         10.1920   19.4280   11.1140 C.2    50  ILE50       0.2287
     79  O         10.0310   19.3670   12.3310 O.2    50  ILE50      -0.2864
     80  CB        10.8240   21.7640   10.3580 C.3    50  ILE50       0.0276
     81  CG1       10.5710   22.3880   11.7300 C.3    50  ILE50       0.0022
     82  CG2        9.5560   21.8130    9.5230 C.3    50  ILE50       0.0022
     83  CD1       10.2610   23.8700   11.6760 C.3    50  ILE50       0.0001
     84  N         17.0640   14.2690   -5.4140 N.3    76  LEU76      -0.1245
     85  CA        16.2240   13.3570   -4.6500 C.3    76  LEU76       0.1561
     86  C         14.7840   13.6090   -5.0920 C.2    76  LEU76       0.2260
     87  O         14.4130   14.7420   -5.4070 O.2    76  LEU76      -0.2867
     88  CB        16.3750   13.6310   -3.1500 C.3    76  LEU76       0.0270
     89  CG        17.8090   13.6440   -2.6080 C.3    76  LEU76       0.0019
     90  CD1       17.7990   14.0720   -1.1450 C.3    76  LEU76       0.0001
     91  CD2       18.4360   12.2630   -2.7630 C.3    76  LEU76       0.0001
     92  N          6.8690   19.0650   -0.1090 N.3    81  PRO81      -0.2102
     93  CA         5.8130   20.0710   -0.2920 C.3    81  PRO81       0.1504
     94  C          6.0350   20.9930   -1.4930 C.2    81  PRO81       0.2575
     95  O          5.0770   21.4770   -2.0890 O.2    81  PRO81      -0.2718
     96  CB         5.8330   20.8400    1.0260 C.3    81  PRO81       0.0282
     97  CG         6.2970   19.8150    2.0110 C.3    81  PRO81       0.0208
     98  CD         7.4080   19.1200    1.2610 C.3    81  PRO81       0.0893
     99  N          7.3000   21.2490   -1.8220 N.am   82  VAL82      -0.1980
    100  CA         7.6620   22.0960   -2.9600 C.3    82  VAL82       0.1595
    101  C          9.0110   21.6450   -3.5000 C.2    82  VAL82       0.2287
    102  O          9.7530   20.9420   -2.8140 O.2    82  VAL82      -0.2864
    103  CB         7.7890   23.6010   -2.5710 C.3    82  VAL82       0.0276
    104  CG1        6.4520   24.1400   -2.0830 C.3    82  VAL82       0.0022
    105  CG2        8.8620   23.7760   -1.5030 C.3    82  VAL82       0.0022
    106  N         12.7550   21.8190   -4.1810 N.3    84  ILE84      -0.1245
    107  CA        13.8360   22.4840   -3.4590 C.3    84  ILE84       0.1561
    108  C         15.2250   22.2990   -4.0760 C.2    84  ILE84       0.2260
    109  O         15.6400   21.1790   -4.3590 O.2    84  ILE84      -0.2867
    110  CB        13.8900   21.9690   -1.9940 C.3    84  ILE84       0.0252
    111  CG1       12.5970   22.3430   -1.2700 C.3    84  ILE84       0.0019
    112  CG2       15.1080   22.5380   -1.2740 C.3    84  ILE84       0.0019
    113  CD1       12.3390   21.5170   -0.0310 C.3    84  ILE84       0.0001
@<TRIPOS>BOND
     1    84    85    1
     2    87    86    2
     3    12    13    1
     4    86    85    1
     5    85    88    1
     6    55    56    2
     7    55    54    1
     8   109   108    2
     9    13    14    1
    10    13    16    1
    11   106   107    1
    12   108   107    1
    13    14    15    2
    14     4     3    2
    15    54    53    1
    16    54    57    1
    17   101   100    1
    18   101   102    2
    19   107   110    1
    20    88    89    1
    21   100   103    1
    22   100    99    1
    23    16    17    1
    24    91    89    1
    25     3     2    1
    26    89    90    1
    27   103   104    1
    28   103   105    1
    29    58    57    1
    30    57    59    1
    31    18    17    1
    32    95    94    2
    33   110   112    1
    34   110   111    1
    35    99    94   am
    36    17    19    1
    37    47    48    2
    38    47    46    1
    39     5     2    1
    40     5     6    1
    41    20    21    1
    42    94    93    1
    43     2     1    1
    44   111   113    1
    45    46    49    1
    46    46    45    1
    47    49    50    1
    48     7     6    1
    49     7     8    1
    50    93    92    1
    51    93    96    1
    52    21    24    1
    53    21    22    1
    54    51    50   ar
    55    92    98    1
    56    10     9    1
    57    40    39    2
    58    24    25    1
    59    50    52   ar
    60    45    39   am
    61    23    22    2
    62    39    38    1
    63     8     9    2
    64     9    11    1
    65    96    97    1
    66    98    97    1
    67    35    34    2
    68    36    33    1
    69    25    27   ar
    70    25    26   ar
    71    67    65    1
    72    34    33    1
    73    34    37   am
    74    38    37    1
    75    38    41    1
    76    33    32    1
    77    66    64    1
    78    32    30   am
    79    65    64    1
    80    41    42    1
    81    28    29    1
    82    64    61    1
    83    30    29    1
    84    30    31    2
    85    60    61    1
    86    42    43   ar
    87    42    44   ar
    88    61    62    1
    89    63    62    2
    90    62    68   am
    91    68    69    1
    92    71    70    2
    93    70    72   am
    94    70    69    1
    95    73    72    1
    96    73    74    1
    97    74    76   am
    98    74    75    2
    99    76    77    1
   100    82    80    1
   101    80    77    1
   102    80    81    1
   103    77    78    1
   104    78    79    2
   105    83    81    1
