@<TRIPOS>MOLECULE
tmp/1wblB02.pdb
 100 94 0 0 0
SMALL
GASTEIGER

@<TRIPOS>ATOM
      1  N        104.7860    2.8120   53.2880 N.3    84  HIS84      -0.1241
      2  CA       104.7730    3.4780   51.9930 C.3    84  HIS84       0.1621
      3  C        105.6600    4.7050   51.9700 C.2    84  HIS84       0.2264
      4  O        105.5130    5.5900   52.7980 O.2    84  HIS84      -0.2867
      5  CB       103.3440    3.8760   51.6010 C.3    84  HIS84       0.0745
      6  CG       102.5710    4.5690   52.6900 C.ar   84  HIS84       0.0817
      7  ND1      101.4340    4.0280   53.2530 N.ar   84  HIS84      -0.2268
      8  CD2      102.7390    5.7760   53.2830 C.ar   84  HIS84       0.1154
      9  CE1      100.9340    4.8680   54.1410 C.ar   84  HIS84       0.1986
     10  NE2      101.7080    5.9360   54.1790 N.ar   84  HIS84      -0.2212
     11  N        107.3350    8.2480   50.5180 N.3    86  ALA86      -0.1231
     12  CA       106.6650    9.4200   49.9980 C.3    86  ALA86       0.1694
     13  C        107.6020   10.6040   50.1690 C.2    86  ALA86       0.2592
     14  O        108.5150   10.5340   50.9740 O.2    86  ALA86      -0.2718
     15  CB       105.4060    9.6530   50.7690 C.3    86  ALA86       0.0304
     16  N        107.4260   11.6730   49.3950 N.am   87  ASP87      -0.1974
     17  CA       106.3830   11.7860   48.3790 C.3    87  ASP87       0.1709
     18  C        107.0130   11.8300   46.9760 C.2    87  ASP87       0.2293
     19  O        106.4080   11.3900   45.9890 O.2    87  ASP87      -0.2864
     20  CB       105.5450   13.0550   48.6180 C.3    87  ASP87       0.1436
     21  CG       104.2210   12.7730   49.3400 C.2    87  ASP87       0.3671
     22  OD1      104.2080   12.6780   50.5830 O.co2  87  ASP87      -0.2456
     23  OD2      103.1750   12.6770   48.6660 O.co2  87  ASP87      -0.2456
     24  N        103.6660   17.1340   51.4600 N.3   104  GLY104     -0.1210
     25  CA       102.9880   15.9220   51.0490 C.3   104  GLY104      0.1956
     26  C        102.9130   15.7930   49.5370 C.2   104  GLY104      0.2612
     27  O        103.8600   16.1340   48.8250 O.2   104  GLY104     -0.2717
     28  N        101.7690   15.3460   49.0380 N.am  105  GLY105     -0.1956
     29  CA       101.5840   15.1690   47.6050 C.3   105  GLY105      0.1869
     30  C        101.7190   16.4180   46.7620 C.2   105  GLY105      0.2309
     31  O        101.5680   16.3570   45.5500 O.2   105  GLY105     -0.2863
     32  N        104.4470    8.3920   46.0230 N.3   126  PHE126     -0.1241
     33  CA       103.2570    8.0820   46.8150 C.3   126  PHE126      0.1605
     34  C        101.9880    8.2080   45.9910 C.2   126  PHE126      0.2264
     35  O        101.7570    9.2190   45.3410 O.2   126  PHE126     -0.2867
     36  CB       103.1390    9.0000   48.0380 C.3   126  PHE126      0.0534
     37  CG       101.9730    8.6680   48.9340 C.ar  126  PHE126     -0.0203
     38  CD1      102.0250    7.5690   49.7860 C.ar  126  PHE126     -0.0042
     39  CD2      100.8100    9.4330   48.9030 C.ar  126  PHE126     -0.0042
     40  CE1      100.9320    7.2340   50.5900 C.ar  126  PHE126     -0.0003
     41  CE2       99.7160    9.1030   49.7030 C.ar  126  PHE126     -0.0003
     42  CZ        99.7790    8.0020   50.5460 C.ar  126  PHE126     -0.0000
     43  N         98.6090    9.2270   45.6220 N.3   128  ASN128     -0.1240
     44  CA        97.5870   10.0650   46.2220 C.3   128  ASN128      0.1653
     45  C         96.2750    9.7490   45.5090 C.2   128  ASN128      0.2266
     46  O         96.2660    9.0130   44.5330 O.2   128  ASN128     -0.2867
     47  CB        97.9450   11.5420   46.0600 C.3   128  ASN128      0.1155
     48  CG        99.0880   11.9640   46.9660 C.2   128  ASN128      0.2627
     49  OD1      100.2330   11.9200   46.5770 O.2   128  ASN128     -0.2716
     50  ND2       98.7780   12.3460   48.1890 N.am  128  ASN128     -0.0877
     51  N         94.3920   11.4470   43.4610 N.3   130  TRP130     -0.1241
     52  CA        94.4580   11.8750   42.0530 C.3   130  TRP130      0.1605
     53  C         95.5700   11.1780   41.2630 C.2   130  TRP130      0.2264
     54  O         95.7920   11.4680   40.0880 O.2   130  TRP130     -0.2867
     55  CB        94.7220   13.3820   41.9970 C.3   130  TRP130      0.0550
     56  CG        96.0020   13.7810   42.6870 C.ar  130  TRP130      0.0003
     57  CD1       97.2660   13.6430   42.2060 C.ar  130  TRP130      0.0946
     58  CD2       96.1350   14.3240   44.0090 C.ar  130  TRP130      0.0152
     59  NE1       98.1830   14.0490   43.1440 N.ar  130  TRP130     -0.2442
     60  CE2       97.5160   14.4760   44.2600 C.ar  130  TRP130      0.0810
     61  CE3       95.2230   14.6970   45.0080 C.ar  130  TRP130      0.0012
     62  CZ2       98.0090   14.9850   45.4700 C.ar  130  TRP130      0.0191
     63  CZ3       95.7130   15.2030   46.2080 C.ar  130  TRP130      0.0001
     64  CH2       97.0950   15.3410   46.4250 C.ar  130  TRP130      0.0015
     65  N        106.6500   12.1910   53.6820 N.3   211  GLY211     -0.1210
     66  CA       105.3110   11.9810   54.2160 C.3   211  GLY211      0.1956
     67  C        104.7980   13.0640   55.1390 C.2   211  GLY211      0.2611
     68  O        105.5480   13.6180   55.9290 O.2   211  GLY211     -0.2717
     69  N        103.5170   13.3850   55.0250 N.am  212  ASP212     -0.1973
     70  CA       102.9130   14.4010   55.8650 C.3   212  ASP212      0.1709
     71  C        102.4570   13.7110   57.1570 C.2   212  ASP212      0.2293
     72  O        102.0760   12.5370   57.1320 O.2   212  ASP212     -0.2864
     73  CB       101.7220   15.0280   55.1390 C.3   212  ASP212      0.1436
     74  CG       101.4530   16.4600   55.5720 C.2   212  ASP212      0.3671
     75  OD1      102.3130   17.3360   55.3160 O.co2 212  ASP212     -0.2456
     76  OD2      100.3840   16.7080   56.1710 O.co2 212  ASP212     -0.2456
     77  N         99.8250   14.0210   58.9870 N.3   214  SER214     -0.1202
     78  CA        98.4280   13.6320   58.8910 C.3   214  SER214      0.2020
     79  C         98.2110   12.3840   58.0620 C.2   214  SER214      0.2619
     80  O         97.1810   12.2460   57.4140 O.2   214  SER214     -0.2717
     81  CB        97.6270   14.7730   58.2770 C.3   214  SER214      0.2103
     82  OG        98.0750   15.0390   56.9620 O.3   214  SER214     -0.2182
     83  N         99.2110   11.5230   58.0130 N.am  215  GLY215     -0.1956
     84  CA        99.1110   10.2810   57.2760 C.3   215  GLY215      0.1869
     85  C         99.4850    9.2320   58.2850 C.2   215  GLY215      0.2309
     86  O         99.3050    8.0340   58.0600 O.2   215  GLY215     -0.2863
     87  N        102.1490    7.7310   59.1850 N.3   217  GLN217     -0.1245
     88  CA       103.2980    6.8510   59.0320 C.3   217  GLN217      0.1566
     89  C        104.6370    7.5950   59.0710 C.2   217  GLN217      0.2260
     90  O        104.9830    8.3620   58.1690 O.2   217  GLN217     -0.2867
     91  CB       103.1620    6.0120   57.7640 C.3   217  GLN217      0.0367
     92  CG       101.8650    5.2220   57.6880 C.3   217  GLN217      0.0905
     93  CD       101.6180    4.3760   58.9220 C.2   217  GLN217      0.2608
     94  OE1      100.8450    4.7440   59.7910 O.2   217  GLN217     -0.2717
     95  NE2      102.2610    3.2270   58.9900 N.am  217  GLN217     -0.0878
     96  N        106.8830    7.0140   56.1650 N.3   220  ALA220     -0.1245
     97  CA       106.4830    7.5500   54.8800 C.3   220  ALA220      0.1562
     98  C        107.6060    8.5040   54.5170 C.2   220  ALA220      0.2260
     99  O        107.4530    9.7280   54.5970 O.2   220  ALA220     -0.2867
    100  CB       105.1810    8.2980   55.0200 C.3   220  ALA220      0.0290
@<TRIPOS>BOND
     1    54    53    2
     2    53    52    1
     3    55    52    1
     4    55    56    1
     5    52    51    1
     6    57    56   ar
     7    57    59   ar
     8    56    58   ar
     9    59    60   ar
    10    58    60   ar
    11    58    61   ar
    12    60    62   ar
    13    46    45    2
    14    61    63   ar
    15    35    34    2
    16    62    64   ar
    17    45    44    1
    18    31    30    2
    19    43    44    1
    20    19    18    2
    21    34    33    1
    22    32    33    1
    23    47    44    1
    24    47    48    1
    25    63    64   ar
    26    49    48    2
    27    30    29    1
    28    33    36    1
    29    48    50   am
    30    18    17    1
    31    29    28    1
    32    36    37    1
    33    17    20    1
    34    17    16    1
    35    20    21    1
    36    23    21   ar
    37    27    26    2
    38    39    37   ar
    39    39    41   ar
    40    37    38   ar
    41    28    26   am
    42    21    22   ar
    43    16    13   am
    44    26    25    1
    45    41    42   ar
    46    38    40   ar
    47    12    13    1
    48    12    11    1
    49    12    15    1
    50    13    14    2
    51    42    40   ar
    52    25    24    1
    53     5     2    1
    54     5     6    1
    55     3     2    1
    56     3     4    2
    57     2     1    1
    58     6     7   ar
    59     6     8   ar
    60     7     9   ar
    61     8    10   ar
    62    65    66    1
    63     9    10   ar
    64    66    67    1
    65    98    99    2
    66    98    97    1
    67    97   100    1
    68    97    96    1
    69    69    67   am
    70    69    70    1
    71    67    68    2
    72    73    74    1
    73    73    70    1
    74    75    74   ar
    75    74    76   ar
    76    70    71    1
    77    82    81    1
    78    72    71    2
    79    84    83    1
    80    84    85    1
    81    80    79    2
    82    92    91    1
    83    92    93    1
    84    91    88    1
    85    83    79   am
    86    86    85    2
    87    79    78    1
    88    90    89    2
    89    81    78    1
    90    78    77    1
    91    93    95   am
    92    93    94    2
    93    88    89    1
    94    88    87    1
