@<TRIPOS>MOLECULE
tmp/1wbmA00.pdb
 112 105 0 0 0
SMALL
GASTEIGER

@<TRIPOS>ATOM
      1  N         26.8520   24.0060    5.9790 N.3     8  ARG8       -0.1245
      2  CA        25.6190   24.6540    6.4070 C.3     8  ARG8        0.1563
      3  C         25.9690   26.0640    6.8730 C.2     8  ARG8        0.2260
      4  O         26.9770   26.2660    7.5680 O.2     8  ARG8       -0.2867
      5  CB        24.9780   23.8710    7.5480 C.3     8  ARG8        0.0307
      6  CG        24.4240   22.5240    7.1250 C.3     8  ARG8        0.0489
      7  CD        23.6300   21.8890    8.2450 C.3     8  ARG8        0.2205
      8  NE        22.9040   20.7100    7.7900 N.pl3   8  ARG8       -0.0865
      9  CZ        22.0770   20.0070    8.5550 C.cat   8  ARG8        0.5346
     10  NH1       21.8720   20.3660    9.8180 N.pl3   8  ARG8        0.1354
     11  NH2       21.4520   18.9490    8.0600 N.pl3   8  ARG8        0.1354
     12  N         20.8100   28.4870   11.7550 N.3    23  LEU23      -0.1245
     13  CA        20.9370   28.3200   10.3190 C.3    23  LEU23       0.1561
     14  C         20.2690   29.4530    9.5320 C.2    23  LEU23       0.2260
     15  O         19.1060   29.7850    9.7830 O.2    23  LEU23      -0.2867
     16  CB        20.2960   26.9870    9.9450 C.3    23  LEU23       0.0270
     17  CG        20.3050   26.4790    8.5100 C.3    23  LEU23       0.0019
     18  CD1       21.7290   26.2150    8.0520 C.3    23  LEU23       0.0001
     19  CD2       19.4800   25.1990    8.4530 C.3    23  LEU23       0.0001
     20  N         18.4140   30.2860    6.7010 N.3    25  ASP25      -0.1239
     21  CA        17.6210   29.4480    5.8000 C.3    25  ASP25       0.1674
     22  C         16.6610   30.1780    4.8510 C.2    25  ASP25       0.2266
     23  O         15.5530   30.5340    5.2430 O.2    25  ASP25      -0.2867
     24  CB        16.8420   28.4810    6.6890 C.3    25  ASP25       0.1410
     25  CG        16.1920   27.3630    5.9230 C.2    25  ASP25       0.3668
     26  OD1       16.0370   27.4680    4.6880 O.co2  25  ASP25      -0.2456
     27  OD2       15.8270   26.3750    6.5870 O.co2  25  ASP25      -0.2456
     28  N         14.9690   28.9840    2.6200 N.3    27  GLY27      -0.1210
     29  CA        13.8290   28.1340    2.3320 C.3    27  GLY27       0.1956
     30  C         12.7860   28.1350    3.4360 C.2    27  GLY27       0.2612
     31  O         11.7420   27.4870    3.3130 O.2    27  GLY27      -0.2717
     32  N         13.0720   28.8600    4.5160 N.am   28  ALA28      -0.1965
     33  CA        12.1590   28.9490    5.6530 C.3    28  ALA28       0.1728
     34  C         11.4210   30.2870    5.6500 C.2    28  ALA28       0.2616
     35  O         12.0520   31.3430    5.6630 O.2    28  ALA28      -0.2715
     36  CB        12.9450   28.7910    6.9680 C.3    28  ALA28       0.0334
     37  N         10.0890   30.2390    5.6310 N.am   29  ASP29      -0.1957
     38  CA         9.2800   31.4560    5.6530 C.3    29  ASP29       0.1840
     39  C          9.3910   32.1720    7.0000 C.2    29  ASP29       0.2622
     40  O          9.4750   33.3970    7.0500 O.2    29  ASP29      -0.2715
     41  CB         7.7960   31.1440    5.4070 C.3    29  ASP29       0.1450
     42  CG         7.5390   30.5140    4.0490 C.2    29  ASP29       0.3671
     43  OD1        8.2070   30.8900    3.0710 O.co2  29  ASP29      -0.2456
     44  OD2        6.6480   29.6520    3.9640 O.co2  29  ASP29      -0.2456
     45  N          9.3810   31.4060    8.0890 N.am   30  ASP30      -0.1971
     46  CA         9.4520   31.9900    9.4270 C.3    30  ASP30       0.1709
     47  C         10.7360   31.5880   10.1450 C.2    30  ASP30       0.2293
     48  O         11.5550   30.8340    9.6180 O.2    30  ASP30      -0.2864
     49  CB         8.2520   31.5320   10.2680 C.3    30  ASP30       0.1436
     50  CG         6.9320   31.6530    9.5270 C.2    30  ASP30       0.3671
     51  OD1        6.5280   32.7830    9.1970 O.co2  30  ASP30      -0.2456
     52  OD2        6.2980   30.6070    9.2730 O.co2  30  ASP30      -0.2456
     53  N         12.2530   29.7940   13.5320 N.3    32  VAL32      -0.1245
     54  CA        11.8570   28.8970   14.6020 C.3    32  VAL32       0.1561
     55  C         13.0670   28.4580   15.4020 C.2    32  VAL32       0.2260
     56  O         14.0970   28.0690   14.8400 O.2    32  VAL32      -0.2867
     57  CB        11.0790   27.6600   14.0600 C.3    32  VAL32       0.0252
     58  CG1       11.8960   26.9270   13.0220 C.3    32  VAL32       0.0019
     59  CG2       10.6970   26.7290   15.2180 C.3    32  VAL32       0.0019
     60  N          3.3310   24.8340   11.7500 N.3    47  ILE47      -0.1231
     61  CA         4.1740   25.1170   10.5910 C.3    47  ILE47       0.1692
     62  C          4.5550   23.7990    9.9400 C.2    47  ILE47       0.2593
     63  O          4.8490   22.8180   10.6300 O.2    47  ILE47      -0.2718
     64  CB         5.4660   25.8780   10.9690 C.3    47  ILE47       0.0266
     65  CG1        6.2480   25.1040   12.0300 C.3    47  ILE47       0.0019
     66  CG2        5.1170   27.2870   11.4540 C.3    47  ILE47       0.0020
     67  CD1        7.5950   25.7160   12.3650 C.3    47  ILE47       0.0001
     68  N          4.5490   23.7810    8.6120 N.am   48  GLY48      -0.1942
     69  CA         4.8730   22.5610    7.9040 C.3    48  GLY48       0.2014
     70  C          6.1610   22.6230    7.1130 C.2    48  GLY48       0.2639
     71  O          6.5470   23.6680    6.5840 O.2    48  GLY48      -0.2714
     72  N          6.8360   21.4880    7.0490 N.am   49  GLY49      -0.1939
     73  CA         8.0710   21.4040    6.2960 C.3    49  GLY49       0.2014
     74  C          8.2130   19.9850    5.8040 C.2    49  GLY49       0.2638
     75  O          7.2170   19.2690    5.6410 O.2    49  GLY49      -0.2714
     76  N          9.4480   19.5720    5.5580 N.am   50  ILE50      -0.1977
     77  CA         9.7010   18.2110    5.1310 C.3    50  ILE50       0.1596
     78  C          9.4160   17.3520    6.3650 C.2    50  ILE50       0.2287
     79  O          9.9490   17.6110    7.4480 O.2    50  ILE50      -0.2864
     80  CB        11.1780   18.0230    4.6900 C.3    50  ILE50       0.0276
     81  CG1       11.3430   18.4090    3.2140 C.3    50  ILE50       0.0022
     82  CG2       11.6130   16.5830    4.9070 C.3    50  ILE50       0.0022
     83  CD1       10.9960   19.8330    2.9090 C.3    50  ILE50       0.0001
     84  N         11.8700   22.0560   17.1390 N.3    80  THR80      -0.1204
     85  CA        12.6830   22.0310   15.9320 C.3    80  THR80       0.1979
     86  C         14.0470   21.4570   16.3130 C.2    80  THR80       0.2460
     87  O         14.6050   21.8020   17.3550 O.2    80  THR80      -0.2732
     88  CB        12.8790   23.4470   15.3380 C.3    80  THR80       0.1783
     89  OG1       13.6870   23.3600   14.1570 O.3    80  THR80      -0.2211
     90  CG2       13.5650   24.3650   16.3440 C.3    80  THR80       0.0376
     91  N         14.5980   20.5650   15.4770 N.am   81  PRO81      -0.2717
     92  CA        15.9050   19.9720   15.7780 C.3    81  PRO81       0.1535
     93  C         17.0710   20.9550   15.6690 C.2    81  PRO81       0.2598
     94  O         18.1260   20.7360   16.2580 O.2    81  PRO81      -0.2715
     95  CB        16.0030   18.8260   14.7720 C.3    81  PRO81       0.0310
     96  CG        15.2290   19.3380   13.6140 C.3    81  PRO81       0.0237
     97  CD        14.0230   19.9760   14.2560 C.3    81  PRO81       0.0939
     98  N         16.8780   22.0370   14.9210 N.am   82  VAL82      -0.1978
     99  CA        17.9180   23.0500   14.7550 C.3    82  VAL82       0.1596
    100  C         17.3010   24.4450   14.7400 C.2    82  VAL82       0.2287
    101  O         16.1520   24.6150   14.3340 O.2    82  VAL82      -0.2864
    102  CB        18.7170   22.8320   13.4410 C.3    82  VAL82       0.0276
    103  CG1       17.7760   22.7620   12.2610 C.3    82  VAL82       0.0022
    104  CG2       19.7090   23.9660   13.2340 C.3    82  VAL82       0.0022
    105  N         16.4760   27.8800   13.3330 N.3    84  ILE84      -0.1245
    106  CA        16.3670   28.3770   11.9660 C.3    84  ILE84       0.1561
    107  C         16.0320   29.8610   11.8680 C.2    84  ILE84       0.2260
    108  O         15.0670   30.3190   12.4650 O.2    84  ILE84      -0.2867
    109  CB        15.2620   27.5980   11.2170 C.3    84  ILE84       0.0252
    110  CG1       15.5710   26.1040   11.2640 C.3    84  ILE84       0.0019
    111  CG2       15.1220   28.1190    9.7790 C.3    84  ILE84       0.0019
    112  CD1       14.4060   25.2270   10.8880 C.3    84  ILE84       0.0001
@<TRIPOS>BOND
     1    29    28    1
     2    29    30    1
     3    83    81    1
     4    43    42   ar
     5    81    80    1
     6    31    30    2
     7    30    32   am
     8    44    42   ar
     9    42    41    1
    10    32    33    1
    11    26    25   ar
    12    80    82    1
    13    80    77    1
    14    22    23    2
    15    22    21    1
    16    77    76    1
    17    77    78    1
    18    41    38    1
    19    76    74   am
    20    37    34   am
    21    37    38    1
    22    75    74    2
    23    34    33    1
    24    34    35    2
    25    33    36    1
    26    38    39    1
    27    21    24    1
    28    21    20    1
    29    74    73    1
    30    25    27   ar
    31    25    24    1
    32     1     2    1
    33    73    72    1
    34    78    79    2
    35     2     3    1
    36     2     5    1
    37    71    70    2
    38     3     4    2
    39    39    40    2
    40    39    45   am
    41    72    70   am
    42    70    69    1
    43     6     5    1
    44     6     7    1
    45     8     7    1
    46     8     9    2
    47    69    68    1
    48    18    17    1
    49    11     9    1
    50    45    46    1
    51    19    17    1
    52    17    16    1
    53     9    10    1
    54    68    62   am
    55    51    50   ar
    56    52    50   ar
    57    46    47    1
    58    46    49    1
    59    50    49    1
    60    14    15    2
    61    14    13    1
    62    48    47    2
    63   111   109    1
    64    62    61    1
    65    62    63    2
    66    16    13    1
    67    13    12    1
    68    61    64    1
    69    61    60    1
    70   112   110    1
    71    64    66    1
    72    64    65    1
    73   109   110    1
    74   109   106    1
    75   107   106    1
    76   107   108    2
    77   106   105    1
    78    65    67    1
    79   103   102    1
    80    58    57    1
    81   104   102    1
    82   102    99    1
    83    53    54    1
    84    96    97    1
    85    96    95    1
    86    57    54    1
    87    57    59    1
    88    89    88    1
    89    97    91    1
    90   101   100    2
    91    54    55    1
    92   100    99    1
    93    99    98    1
    94    95    92    1
    95    56    55    2
    96    98    93   am
    97    88    85    1
    98    88    90    1
    99    91    92    1
   100    91    86   am
   101    93    92    1
   102    93    94    2
   103    85    86    1
   104    85    84    1
   105    86    87    2
