@<TRIPOS>MOLECULE
tmp/1wbnA00.pdb
 198 187 0 0 0
SMALL
GASTEIGER

@<TRIPOS>ATOM
      1  N         -0.6710   10.3520   22.5020 N.3    27  VAL27      -0.1245
      2  CA        -1.6360   10.4350   23.5900 C.3    27  VAL27       0.1561
      3  C         -1.9210   11.8750   24.0170 C.2    27  VAL27       0.2260
      4  O         -2.9730   12.1670   24.5840 O.2    27  VAL27      -0.2867
      5  CB        -1.1990    9.5880   24.8010 C.3    27  VAL27       0.0252
      6  CG1       -2.1020    9.8540   25.9940 C.3    27  VAL27       0.0019
      7  CG2       -1.2270    8.1140   24.4430 C.3    27  VAL27       0.0019
      8  N          3.5070   13.3670   24.0130 N.3    35  VAL35      -0.1245
      9  CA         3.5800   12.0450   24.6130 C.3    35  VAL35       0.1561
     10  C          3.0070   10.9770   23.6790 C.2    35  VAL35       0.2260
     11  O          1.9520   11.1750   23.0770 O.2    35  VAL35      -0.2867
     12  CB         2.8290   11.9980   25.9590 C.3    35  VAL35       0.0252
     13  CG1        3.1870   10.7250   26.7260 C.3    35  VAL35       0.0019
     14  CG2        3.1150   13.2490   26.7870 C.3    35  VAL35       0.0019
     15  N          4.9650    5.2480   28.7540 N.3    48  ALA48      -0.1231
     16  CA         4.7520    6.5460   28.1240 C.3    48  ALA48       0.1694
     17  C          6.0880    7.2160   27.8200 C.2    48  ALA48       0.2592
     18  O          7.0250    7.1470   28.6100 O.2    48  ALA48      -0.2718
     19  CB         3.9040    7.4370   29.0150 C.3    48  ALA48       0.0304
     20  N          6.1720    7.8630   26.6660 N.am   49  VAL49      -0.1966
     21  CA         7.3970    8.5370   26.2670 C.3    49  VAL49       0.1727
     22  C          7.0580    9.9810   25.9730 C.2    49  VAL49       0.2616
     23  O          6.2480   10.2600   25.0940 O.2    49  VAL49      -0.2715
     24  CB         7.9910    7.9160   24.9770 C.3    49  VAL49       0.0290
     25  CG1        9.3630    8.4980   24.6930 C.3    49  VAL49       0.0023
     26  CG2        8.0550    6.4030   25.0810 C.3    49  VAL49       0.0023
     27  N          7.6720   10.8980   26.7130 N.am   50  LYS50      -0.1977
     28  CA         7.5460   12.3180   26.4120 C.3    50  LYS50       0.1596
     29  C          8.7540   12.8530   25.6680 C.2    50  LYS50       0.2287
     30  O          9.8900   12.7050   26.1150 O.2    50  LYS50      -0.2864
     31  CB         7.2970   13.1560   27.6700 C.3    50  LYS50       0.0298
     32  CG         7.4040   14.6540   27.3880 C.3    50  LYS50       0.0038
     33  CD         6.7030   15.5130   28.4260 C.3    50  LYS50       0.0206
     34  CE         7.3610   15.4100   29.7770 C.3    50  LYS50       0.1093
     35  NZ         6.6740   16.2680   30.7870 N.3    50  LYS50      -0.1314
     36  N         13.1260   19.1680   35.6860 N.3    68  GLU68      -0.1245
     37  CA        12.2910   17.9740   35.6110 C.3    68  GLU68       0.1567
     38  C         13.1060   16.6810   35.5590 C.2    68  GLU68       0.2260
     39  O         12.7310   15.6780   36.1590 O.2    68  GLU68      -0.2867
     40  CB        11.3200   18.0420   34.4330 C.3    68  GLU68       0.0388
     41  CG        10.4560   16.8000   34.3030 C.3    68  GLU68       0.1160
     42  CD         9.4640   16.8860   33.1550 C.2    68  GLU68       0.3649
     43  OE1        9.8840   17.2420   32.0310 O.co2  68  GLU68      -0.2457
     44  OE2        8.2670   16.5860   33.3720 O.co2  68  GLU68      -0.2457
     45  N         14.4660   16.0500   38.9160 N.3    71  LEU71      -0.1231
     46  CA        13.3190   15.6810   39.7270 C.3    71  LEU71       0.1693
     47  C         12.9440   14.2270   39.5210 C.2    71  LEU71       0.2591
     48  O         12.7550   13.4920   40.4750 O.2    71  LEU71      -0.2718
     49  CB        12.1200   16.5610   39.3700 C.3    71  LEU71       0.0284
     50  CG        10.8200   16.2530   40.1210 C.3    71  LEU71       0.0019
     51  CD1       11.0210   16.4780   41.6120 C.3    71  LEU71       0.0001
     52  CD2        9.6690   17.1040   39.5920 C.3    71  LEU71       0.0001
     53  N         12.8240   13.8240   38.2620 N.am   72  LEU72      -0.1980
     54  CA        12.3300   12.4990   37.9290 C.3    72  LEU72       0.1596
     55  C         13.3700   11.4160   38.1710 C.2    72  LEU72       0.2287
     56  O         13.0260   10.2940   38.5430 O.2    72  LEU72      -0.2864
     57  CB        11.8440   12.4560   36.4860 C.3    72  LEU72       0.0297
     58  CG        10.3480   12.6850   36.2780 C.3    72  LEU72       0.0022
     59  CD1        9.7340   13.5340   37.3700 C.3    72  LEU72       0.0001
     60  CD2       10.1100   13.2900   34.9080 C.3    72  LEU72       0.0001
     61  N         12.8540   10.6830   42.1060 N.3    75  MET75      -0.1245
     62  CA        11.6470   10.1170   42.6980 C.3    75  MET75       0.1570
     63  C         11.6160    8.5880   42.6290 C.2    75  MET75       0.2261
     64  O         11.4240    8.0050   41.5540 O.2    75  MET75      -0.2867
     65  CB        10.3950   10.6890   42.0280 C.3    75  MET75       0.0387
     66  CG        10.2400   12.1990   42.1330 C.3    75  MET75       0.0595
     67  SD        10.3300   12.7950   43.8300 S.3    75  MET75      -0.1393
     68  CE         8.7340   12.4990   44.3650 C.3    75  MET75       0.0692
     69  N          4.6350    7.3570   43.9020 N.3    80  VAL80      -0.1231
     70  CA         5.1010    8.4780   43.1110 C.3    80  VAL80       0.1692
     71  C          5.6230    7.9620   41.7840 C.2    80  VAL80       0.2591
     72  O          6.0620    6.8200   41.6780 O.2    80  VAL80      -0.2718
     73  CB         6.2000    9.2700   43.8360 C.3    80  VAL80       0.0266
     74  CG1        6.5360   10.5260   43.0580 C.3    80  VAL80       0.0020
     75  CG2        5.7630    9.6130   45.2550 C.3    80  VAL80       0.0020
     76  N          5.5600    8.8050   40.7640 N.am   81  ILE81      -0.1980
     77  CA         6.0040    8.4040   39.4470 C.3    81  ILE81       0.1595
     78  C          7.5300    8.3550   39.3870 C.2    81  ILE81       0.2287
     79  O          8.2150    9.1900   39.9850 O.2    81  ILE81      -0.2864
     80  CB         5.4640    9.3520   38.3740 C.3    81  ILE81       0.0276
     81  CG1        5.8380    8.8480   36.9820 C.3    81  ILE81       0.0022
     82  CG2        5.9580   10.7680   38.6240 C.3    81  ILE81       0.0022
     83  CD1        5.2470    9.6810   35.8670 C.3    81  ILE81       0.0001
     84  N         11.1660    7.3760   36.7390 N.3    83  LEU83      -0.1245
     85  CA        11.7300    7.2940   35.3980 C.3    83  LEU83       0.1561
     86  C         12.1450    5.8720   35.0870 C.2    83  LEU83       0.2260
     87  O         12.9860    5.3130   35.7810 O.2    83  LEU83      -0.2867
     88  CB        12.9720    8.1810   35.2910 C.3    83  LEU83       0.0270
     89  CG        12.8920    9.5130   34.5480 C.3    83  LEU83       0.0019
     90  CD1       14.2950   10.0990   34.4460 C.3    83  LEU83       0.0001
     91  CD2       12.3030    9.3170   33.1590 C.3    83  LEU83       0.0001
     92  N         11.7990   11.3210   27.8420 N.3   101  LEU101     -0.1231
     93  CA        11.5600   10.7280   29.1540 C.3   101  LEU101      0.1693
     94  C         10.5980    9.5380   29.0670 C.2   101  LEU101      0.2592
     95  O          9.5640    9.6060   28.4020 O.2   101  LEU101     -0.2718
     96  CB        11.0030   11.7890   30.1060 C.3   101  LEU101      0.0284
     97  CG        11.9090   13.0140   30.2820 C.3   101  LEU101      0.0019
     98  CD1       11.1890   14.1720   30.9790 C.3   101  LEU101      0.0001
     99  CD2       13.1970   12.6360   31.0120 C.3   101  LEU101      0.0001
    100  N         10.9430    8.4460   29.7410 N.am  102  VAL102     -0.1966
    101  CA        10.1030    7.2570   29.7130 C.3   102  VAL102      0.1727
    102  C          9.5370    6.9400   31.0870 C.2   102  VAL102      0.2616
    103  O         10.2640    6.9240   32.0790 O.2   102  VAL102     -0.2715
    104  CB        10.8580    6.0130   29.1890 C.3   102  VAL102      0.0290
    105  CG1        9.8850    4.8600   28.9480 C.3   102  VAL102      0.0023
    106  CG2       11.6320    6.3480   27.9290 C.3   102  VAL102      0.0023
    107  N          8.2360    6.6710   31.1340 N.am  103  THR103     -0.1951
    108  CA         7.5670    6.3490   32.3850 C.3   103  THR103      0.1897
    109  C          6.6180    5.1740   32.1730 C.2   103  THR103      0.2313
    110  O          6.3450    4.7940   31.0350 O.2   103  THR103     -0.2863
    111  CB         6.7660    7.5570   32.9030 C.3   103  THR103      0.1794
    112  OG1        6.6080    7.4490   34.3180 O.3   103  THR103     -0.2208
    113  CG2        5.3910    7.5850   32.2760 C.3   103  THR103      0.0378
    114  N          3.0880    3.5840   31.7250 N.3   105  LEU105     -0.1231
    115  CA         1.8910    4.0970   31.0880 C.3   105  LEU105      0.1693
    116  C          0.7550    4.2350   32.1000 C.2   105  LEU105      0.2591
    117  O          0.3280    3.2540   32.6960 O.2   105  LEU105     -0.2718
    118  CB         1.4630    3.1770   29.9470 C.3   105  LEU105      0.0284
    119  CG         0.2330    3.6390   29.1610 C.3   105  LEU105      0.0019
    120  CD1        0.4850    5.0200   28.5600 C.3   105  LEU105      0.0001
    121  CD2       -0.0900    2.6400   28.0660 C.3   105  LEU105      0.0001
    122  N          0.2740    5.4590   32.2850 N.am  106  MET106     -0.1979
    123  CA        -0.8690    5.7220   33.1540 C.3   106  MET106      0.1605
    124  C         -2.1700    5.6610   32.3440 C.2   106  MET106      0.2287
    125  O         -2.2800    6.2680   31.2800 O.2   106  MET106     -0.2864
    126  CB        -0.7320    7.1060   33.8060 C.3   106  MET106      0.0413
    127  CG         0.5710    7.3440   34.5790 C.3   106  MET106      0.0598
    128  SD         0.8300    6.2620   36.0270 S.3   106  MET106     -0.1393
    129  CE         2.2190    5.3210   35.5060 C.3   106  MET106      0.0692
    130  N          7.5150   13.1020   48.8690 N.3   138  ILE138     -0.1245
    131  CA         7.8310   14.2430   48.0210 C.3   138  ILE138      0.1561
    132  C          8.2750   15.4320   48.8700 C.2   138  ILE138      0.2260
    133  O          9.2720   16.0900   48.5620 O.2   138  ILE138     -0.2867
    134  CB         6.6320   14.6500   47.1330 C.3   138  ILE138      0.0252
    135  CG1        6.1730   13.4670   46.2730 C.3   138  ILE138      0.0019
    136  CG2        7.0060   15.8330   46.2470 C.3   138  ILE138      0.0019
    137  CD1        4.8790   13.7020   45.5280 C.3   138  ILE138      0.0001
    138  N         10.3110   19.1170   47.9060 N.3   143  ILE143     -0.1231
    139  CA         9.5620   19.4190   46.7000 C.3   143  ILE143      0.1692
    140  C          8.1020   19.6670   47.0290 C.2   143  ILE143      0.2592
    141  O          7.5050   18.9420   47.8290 O.2   143  ILE143     -0.2718
    142  CB         9.6770   18.2890   45.6800 C.3   143  ILE143      0.0266
    143  CG1       11.1390   18.1450   45.2490 C.3   143  ILE143      0.0019
    144  CG2        8.7700   18.5670   44.4810 C.3   143  ILE143      0.0020
    145  CD1       11.5920   16.7120   45.0990 C.3   143  ILE143      0.0001
    146  N          7.5370   20.7020   46.4190 N.am  144  ILE144     -0.1966
    147  CA         6.1120   20.9690   46.5250 C.3   144  ILE144      0.1727
    148  C          5.4890   20.6180   45.1810 C.2   144  ILE144      0.2616
    149  O          6.0420   20.9590   44.1330 O.2   144  ILE144     -0.2715
    150  CB         5.8380   22.4660   46.8360 C.3   144  ILE144      0.0290
    151  CG1        6.7440   22.9500   47.9670 C.3   144  ILE144      0.0022
    152  CG2        4.3860   22.6670   47.2360 C.3   144  ILE144      0.0023
    153  CD1        6.5970   24.4180   48.2690 C.3   144  ILE144      0.0001
    154  N          4.3470   19.9330   45.2040 N.am  145  HIS145     -0.1973
    155  CA         3.6490   19.6280   43.9620 C.3   145  HIS145      0.1656
    156  C          3.0420   20.8920   43.3530 C.2   145  HIS145      0.2291
    157  O          3.2970   21.2140   42.1910 O.2   145  HIS145     -0.2864
    158  CB         2.5750   18.5550   44.1660 C.3   145  HIS145      0.0771
    159  CG         2.0370   17.9980   42.8870 C.ar  145  HIS145      0.0820
    160  ND1        1.5160   18.7960   41.8880 N.ar  145  HIS145     -0.2267
    161  CD2        1.9780   16.7290   42.4200 C.ar  145  HIS145      0.1154
    162  CE1        1.1650   18.0420   40.8630 C.ar  145  HIS145      0.1986
    163  NE2        1.4350   16.7820   41.1580 N.ar  145  HIS145     -0.2212
    164  N          1.0960    9.5870   42.2540 N.3   163  ILE163     -0.1231
    165  CA         1.1610   11.0260   42.0210 C.3   163  ILE163      0.1692
    166  C          2.1330   11.3260   40.8820 C.2   163  ILE163      0.2592
    167  O          3.2710   10.8650   40.8960 O.2   163  ILE163     -0.2718
    168  CB         1.6630   11.7630   43.2860 C.3   163  ILE163      0.0266
    169  CG1        0.8040   11.4030   44.5030 C.3   163  ILE163      0.0019
    170  CG2        1.6830   13.2590   43.0580 C.3   163  ILE163      0.0020
    171  CD1        1.3310   11.9720   45.8090 C.3   163  ILE163      0.0001
    172  N          1.6710   12.0930   39.8970 N.am  164  LEU164     -0.1966
    173  CA         2.5530   12.6870   38.8980 C.3   164  LEU164      0.1728
    174  C          2.0950   14.0800   38.4490 C.2   164  LEU164      0.2616
    175  O          1.2760   14.7130   39.1130 O.2   164  LEU164     -0.2715
    176  CB         2.7960   11.7300   37.7180 C.3   164  LEU164      0.0311
    177  CG         1.7110   11.2160   36.7560 C.3   164  LEU164      0.0022
    178  CD1        0.4330   10.7990   37.4550 C.3   164  LEU164      0.0001
    179  CD2        1.4170   12.1810   35.6370 C.3   164  LEU164      0.0001
    180  N          2.6420   14.5670   37.3390 N.am  165  ASP165     -0.1957
    181  CA         2.1230   15.7760   36.7030 C.3   165  ASP165      0.1840
    182  C          2.0210   15.5640   35.1860 C.2   165  ASP165      0.2622
    183  O          3.0400   15.5380   34.4880 O.2   165  ASP165     -0.2715
    184  CB         3.0270   16.9750   37.0100 C.3   165  ASP165      0.1450
    185  CG         2.3600   18.3000   36.7110 C.2   165  ASP165      0.3671
    186  OD1        1.7240   18.4190   35.6480 O.co2 165  ASP165     -0.2456
    187  OD2        2.4780   19.2320   37.5310 O.co2 165  ASP165     -0.2456
    188  N          0.7930   15.4070   34.6880 N.am  166  PHE166     -0.1974
    189  CA         0.5470   15.2120   33.2580 C.3   166  PHE166      0.1639
    190  C          0.7670   16.5060   32.4780 C.2   166  PHE166      0.2290
    191  O          0.7640   16.5000   31.2490 O.2   166  PHE166     -0.2864
    192  CB        -0.8850   14.7380   32.9850 C.3   166  PHE166      0.0560
    193  CG        -1.1990   13.3550   33.4940 C.ar  166  PHE166     -0.0200
    194  CD1       -1.6340   13.1560   34.7930 C.ar  166  PHE166     -0.0042
    195  CD2       -1.1110   12.2560   32.6520 C.ar  166  PHE166     -0.0042
    196  CE1       -1.9810   11.8910   35.2380 C.ar  166  PHE166     -0.0003
    197  CE2       -1.4570   10.9890   33.1000 C.ar  166  PHE166     -0.0003
    198  CZ        -1.8920   10.8110   34.3900 C.ar  166  PHE166     -0.0000
@<TRIPOS>BOND
     1     1     2    1
     2    11    10    2
     3     2     3    1
     4     2     5    1
     5    10     9    1
     6     8     9    1
     7     3     4    2
     8     7     5    1
     9     9    12    1
    10    25    24    1
    11     5     6    1
    12    24    26    1
    13    24    21    1
    14    23    22    2
    15    29    30    2
    16    29    28    1
    17    12    13    1
    18    12    14    1
    19    22    21    1
    20    22    27   am
    21    21    20    1
    22    28    27    1
    23    28    31    1
    24    20    17   am
    25    32    31    1
    26    32    33    1
    27    17    16    1
    28    17    18    2
    29    92    93    1
    30   106   104    1
    31   121   119    1
    32    16    15    1
    33    16    19    1
    34    95    94    2
    35    33    34    1
    36   120   119    1
    37   105   104    1
    38    94    93    1
    39    94   100   am
    40    93    96    1
    41   119   118    1
    42   104   101    1
    43   101   100    1
    44   101   102    1
    45    34    35    1
    46   118   115    1
    47    96    97    1
    48    97    98    1
    49    97    99    1
    50   110   109    2
    51   102   107   am
    52   102   103    2
    53   115   114    1
    54   115   116    1
    55   107   108    1
    56   191   190    2
    57   125   124    2
    58    43    42   ar
    59   116   122   am
    60   116   117    2
    61   109   108    1
    62   113   111    1
    63   122   123    1
    64   124   123    1
    65   108   111    1
    66   190   189    1
    67   195   197   ar
    68   195   193   ar
    69   111   112    1
    70   192   189    1
    71   192   193    1
    72   197   198   ar
    73   123   126    1
    74    42    44   ar
    75    42    41    1
    76    91    89    1
    77   189   188    1
    78   193   194   ar
    79   126   127    1
    80    41    40    1
    81   198   196   ar
    82    40    37    1
    83    90    89    1
    84   183   182    2
    85    89    88    1
    86   127   128    1
    87   188   182   am
    88   194   196   ar
    89    60    58    1
    90    86    85    1
    91    86    87    2
    92   182   181    1
    93    88    85    1
    94    85    84    1
    95   129   128    1
    96    38    37    1
    97    38    39    2
    98    37    36    1
    99   179   177    1
   100   186   185   ar
   101    83    81    1
   102    58    57    1
   103    58    59    1
   104    57    54    1
   105   181   184    1
   106   181   180    1
   107   185   184    1
   108   185   187   ar
   109   177   178    1
   110   177   176    1
   111    81    80    1
   112   180   174   am
   113   176   173    1
   114    54    55    1
   115    54    53    1
   116    55    56    2
   117    53    47   am
   118    80    82    1
   119    80    77    1
   120   174   173    1
   121   174   175    2
   122   173   172    1
   123    45    46    1
   124    49    46    1
   125    49    50    1
   126    78    77    1
   127    78    79    2
   128    77    76    1
   129    47    46    1
   130    47    48    2
   131    52    50    1
   132   172   166   am
   133    50    51    1
   134    76    71   am
   135   162   163   ar
   136   162   160   ar
   137   166   167    2
   138   166   165    1
   139   163   161   ar
   140    64    63    2
   141    72    71    2
   142    71    70    1
   143   160   159   ar
   144   165   164    1
   145   165   168    1
   146    65    66    1
   147    65    62    1
   148    61    62    1
   149    66    67    1
   150   157   156    2
   151   161   159   ar
   152    63    62    1
   153   159   158    1
   154    74    73    1
   155   170   168    1
   156    70    73    1
   157    70    69    1
   158   168   169    1
   159   156   155    1
   160    67    68    1
   161    73    75    1
   162   155   158    1
   163   155   154    1
   164   149   148    2
   165   144   142    1
   166   169   171    1
   167   145   143    1
   168   148   154   am
   169   148   147    1
   170   143   142    1
   171   137   135    1
   172   142   139    1
   173   136   134    1
   174   135   134    1
   175   146   147    1
   176   146   140   am
   177   147   150    1
   178   139   140    1
   179   139   138    1
   180   150   152    1
   181   150   151    1
   182   140   141    2
   183   134   131    1
   184   151   153    1
   185   131   130    1
   186   131   132    1
   187   133   132    2
