@<TRIPOS>MOLECULE
tmp/1wboA00.pdb
 75 67 0 0 0
SMALL
GASTEIGER

@<TRIPOS>ATOM
      1  N          2.9580   14.0340   23.3150 N.3    35  VAL35      -0.1245
      2  CA         2.9860   12.7590   24.0020 C.3    35  VAL35       0.1561
      3  C          2.4790   11.6470   23.0610 C.2    35  VAL35       0.2260
      4  O          1.4380   11.8140   22.4310 O.2    35  VAL35      -0.2867
      5  CB         2.1450   12.8100   25.3050 C.3    35  VAL35       0.0252
      6  CG1        2.1490   11.4820   26.0040 C.3    35  VAL35       0.0019
      7  CG2        2.6990   13.8860   26.2300 C.3    35  VAL35       0.0019
      8  N          4.3070    6.1350   28.1620 N.3    48  ALA48      -0.1245
      9  CA         4.0430    7.4380   27.5530 C.3    48  ALA48       0.1562
     10  C          5.3990    8.0430   27.3260 C.2    48  ALA48       0.2260
     11  O          6.2360    8.0660   28.2500 O.2    48  ALA48      -0.2867
     12  CB         3.2370    8.3300   28.4900 C.3    48  ALA48       0.0290
     13  N          7.1290   11.4770   26.1200 N.3    50  LYS50      -0.1245
     14  CA         6.9110   12.9280   25.9210 C.3    50  LYS50       0.1561
     15  C          8.1420   13.5750   25.2500 C.2    50  LYS50       0.2260
     16  O          9.2420   13.4750   25.7560 O.2    50  LYS50      -0.2867
     17  CB         6.6000   13.6200   27.2540 C.3    50  LYS50       0.0271
     18  CG         6.5440   15.1430   27.1540 C.3    50  LYS50       0.0035
     19  CD         5.8800   15.8470   28.3460 C.3    50  LYS50       0.0206
     20  CE         6.7800   15.8800   29.6020 C.3    50  LYS50       0.1093
     21  NZ         6.0590   16.2550   30.9170 N.3    50  LYS50      -0.1314
     22  N         11.9880   14.5580   38.1820 N.3    72  LEU72      -0.1245
     23  CA        11.5860   13.2170   37.7560 C.3    72  LEU72       0.1561
     24  C         12.6450   12.1400   38.0380 C.2    72  LEU72       0.2260
     25  O         12.2960   11.0180   38.4250 O.2    72  LEU72      -0.2867
     26  CB        11.1990   13.2130   36.2680 C.3    72  LEU72       0.0270
     27  CG         9.8770   13.9300   35.9220 C.3    72  LEU72       0.0019
     28  CD1        9.7440   14.1420   34.4300 C.3    72  LEU72       0.0001
     29  CD2        8.6940   13.1540   36.4120 C.3    72  LEU72       0.0001
     30  N          4.8250    9.3210   40.3900 N.3    81  ILE81      -0.1245
     31  CA         5.3850    9.2180   39.0470 C.3    81  ILE81       0.1561
     32  C          6.9220    9.1860   39.0740 C.2    81  ILE81       0.2260
     33  O          7.5610   10.0010   39.7360 O.2    81  ILE81      -0.2867
     34  CB         4.8800   10.4010   38.1780 C.3    81  ILE81       0.0252
     35  CG1        5.3240   10.2780   36.7210 C.3    81  ILE81       0.0019
     36  CG2        5.3410   11.7750   38.7080 C.3    81  ILE81       0.0019
     37  CD1        4.7380   11.3800   35.8540 C.3    81  ILE81       0.0001
     38  N         10.6200    8.1830   36.3290 N.3    83  LEU83      -0.1245
     39  CA        11.2160    8.1270   35.0150 C.3    83  LEU83       0.1561
     40  C         11.6390    6.7010   34.6930 C.2    83  LEU83       0.2260
     41  O         12.5060    6.1470   35.3690 O.2    83  LEU83      -0.2867
     42  CB        12.4680    8.9860   34.9230 C.3    83  LEU83       0.0270
     43  CG        12.4670   10.3510   34.2620 C.3    83  LEU83       0.0019
     44  CD1       13.8750   10.7040   33.9480 C.3    83  LEU83       0.0001
     45  CD2       11.5870   10.4330   33.0090 C.3    83  LEU83       0.0001
     46  N         11.1910   12.0660   27.3960 N.3   101  LEU101     -0.1231
     47  CA        11.0200   11.4840   28.6690 C.3   101  LEU101      0.1693
     48  C         10.0400   10.3450   28.5490 C.2   101  LEU101      0.2592
     49  O          9.0590   10.4260   27.8020 O.2   101  LEU101     -0.2718
     50  CB        10.4480   12.5070   29.6900 C.3   101  LEU101      0.0284
     51  CG        11.0950   13.9030   29.8220 C.3   101  LEU101      0.0019
     52  CD1       10.2520   14.8630   30.6600 C.3   101  LEU101      0.0001
     53  CD2       12.4690   13.7700   30.4410 C.3   101  LEU101      0.0001
     54  N         10.2680    9.3100   29.3530 N.am  102  VAL102     -0.1966
     55  CA         9.4570    8.1140   29.2930 C.3   102  VAL102      0.1727
     56  C          8.9970    7.7420   30.6640 C.2   102  VAL102      0.2616
     57  O          9.8140    7.6200   31.5810 O.2   102  VAL102     -0.2715
     58  CB        10.2260    6.9350   28.6480 C.3   102  VAL102      0.0290
     59  CG1        9.3400    5.6950   28.5690 C.3   102  VAL102      0.0023
     60  CG2       10.7270    7.3230   27.2540 C.3   102  VAL102      0.0023
     61  N          7.6750    7.5220   30.7890 N.am  103  THR103     -0.1951
     62  CA         7.0970    7.0110   31.9990 C.3   103  THR103      0.1897
     63  C          6.0210    5.9490   31.7230 C.2   103  THR103      0.2313
     64  O          5.6810    5.7180   30.5760 O.2   103  THR103     -0.2863
     65  CB         6.5120    8.1850   32.8230 C.3   103  THR103      0.1794
     66  OG1        6.1840    7.7230   34.1500 O.3   103  THR103     -0.2208
     67  CG2        5.2160    8.6650   32.2490 C.3   103  THR103      0.0378
     68  N          2.2610   14.5930   37.4650 N.3   165  ASP165     -0.1239
     69  CA         3.0210   15.8040   37.2350 C.3   165  ASP165      0.1674
     70  C          2.9250   16.9720   38.2160 C.2   165  ASP165      0.2266
     71  O          1.8580   17.4840   38.5360 O.2   165  ASP165     -0.2867
     72  CB         2.6950   16.2720   35.8180 C.3   165  ASP165      0.1410
     73  CG         2.8570   15.1230   34.8030 C.2   165  ASP165      0.3668
     74  OD1        4.0130   14.7370   34.4650 O.co2 165  ASP165     -0.2456
     75  OD2        1.8660   14.5000   34.3710 O.co2 165  ASP165     -0.2456
@<TRIPOS>BOND
     1     4     3    2
     2     3     2    1
     3     1     2    1
     4     2     5    1
     5    15    16    2
     6    15    14    1
     7     5     6    1
     8     5     7    1
     9    14    13    1
    10    14    17    1
    11    18    17    1
    12    18    19    1
    13    60    58    1
    14    10     9    1
    15    10    11    2
    16    46    47    1
    17     9     8    1
    18     9    12    1
    19    49    48    2
    20    19    20    1
    21    48    47    1
    22    48    54   am
    23    59    58    1
    24    58    55    1
    25    47    50    1
    26    55    54    1
    27    55    56    1
    28    20    21    1
    29    50    51    1
    30    51    53    1
    31    51    52    1
    32    64    63    2
    33    56    61   am
    34    56    57    2
    35    61    62    1
    36    63    62    1
    37    62    65    1
    38    67    65    1
    39    65    66    1
    40    45    43    1
    41    44    43    1
    42    43    42    1
    43    75    73   ar
    44    28    27    1
    45    74    73   ar
    46    40    39    1
    47    40    41    2
    48    73    72    1
    49    42    39    1
    50    39    38    1
    51    72    69    1
    52    37    35    1
    53    27    26    1
    54    27    29    1
    55    26    23    1
    56    35    34    1
    57    69    68    1
    58    69    70    1
    59    23    24    1
    60    23    22    1
    61    24    25    2
    62    34    36    1
    63    34    31    1
    64    70    71    2
    65    31    32    1
    66    31    30    1
    67    32    33    2
