@<TRIPOS>MOLECULE
tmp/1wbsA00.pdb
 224 213 0 0 0
SMALL
GASTEIGER

@<TRIPOS>ATOM
      1  N         -0.9750   10.1500   23.2950 N.3    27  VAL27      -0.1245
      2  CA        -1.8380   10.2660   24.4640 C.3    27  VAL27       0.1561
      3  C         -2.2110   11.7300   24.7300 C.2    27  VAL27       0.2260
      4  O         -3.3530   12.0270   25.0850 O.2    27  VAL27      -0.2867
      5  CB        -1.1510    9.6480   25.7110 C.3    27  VAL27       0.0252
      6  CG1       -1.8050   10.1240   27.0100 C.3    27  VAL27       0.0019
      7  CG2       -1.1770    8.1250   25.6180 C.3    27  VAL27       0.0019
      8  N          3.2140   13.2700   24.6300 N.3    35  VAL35      -0.1245
      9  CA         3.2230   11.9760   25.3110 C.3    35  VAL35       0.1561
     10  C          2.6320   10.8670   24.4260 C.2    35  VAL35       0.2260
     11  O          1.5550   11.0460   23.8500 O.2    35  VAL35      -0.2867
     12  CB         2.4290   12.0470   26.6250 C.3    35  VAL35       0.0252
     13  CG1        2.4280   10.6880   27.3420 C.3    35  VAL35       0.0019
     14  CG2        2.9910   13.1600   27.5310 C.3    35  VAL35       0.0019
     15  N          4.5210    5.1130   29.2850 N.3    48  ALA48      -0.1245
     16  CA         4.2530    6.4140   28.6910 C.3    48  ALA48       0.1562
     17  C          5.5860    7.1190   28.4880 C.2    48  ALA48       0.2260
     18  O          6.4050    7.1920   29.4150 O.2    48  ALA48      -0.2867
     19  CB         3.3450    7.2300   29.5800 C.3    48  ALA48       0.0290
     20  N          7.3380   10.6350   27.4300 N.3    50  LYS50      -0.1245
     21  CA         7.1820   12.0610   27.2250 C.3    50  LYS50       0.1561
     22  C          8.4010   12.6190   26.5070 C.2    50  LYS50       0.2260
     23  O          9.5260   12.4930   26.9820 O.2    50  LYS50      -0.2867
     24  CB         6.9660   12.8080   28.5530 C.3    50  LYS50       0.0271
     25  CG         6.6850   14.3090   28.3730 C.3    50  LYS50       0.0035
     26  CD         6.1860   14.9930   29.6570 C.3    50  LYS50       0.0206
     27  CE         7.1810   14.8470   30.7980 C.3    50  LYS50       0.1093
     28  NZ         6.9180   15.8470   31.9140 N.3    50  LYS50      -0.1314
     29  N         15.6660   20.4560   36.2640 N.3    67  ARG67      -0.1231
     30  CA        14.8960   20.2380   37.4930 C.3    67  ARG67       0.1694
     31  C         14.0560   18.9620   37.4330 C.2    67  ARG67       0.2591
     32  O         14.0520   18.1720   38.3750 O.2    67  ARG67      -0.2718
     33  CB        13.9470   21.4120   37.7630 C.3    67  ARG67       0.0321
     34  CG        13.0810   21.2380   39.0030 C.3    67  ARG67       0.0489
     35  CD        12.1210   22.4150   39.2030 C.3    67  ARG67       0.2205
     36  NE        12.8540   23.6740   39.2760 N.pl3  67  ARG67      -0.0865
     37  CZ        12.6670   24.7270   38.4820 C.cat  67  ARG67       0.5346
     38  NH1       11.7470   24.7210   37.5310 N.pl3  67  ARG67       0.1354
     39  NH2       13.4230   25.8100   38.6420 N.pl3  67  ARG67       0.1354
     40  N         13.3090   18.7970   36.3450 N.am   68  GLU68      -0.1979
     41  CA        12.4460   17.6240   36.1960 C.3    68  GLU68       0.1602
     42  C         13.2680   16.3260   36.2110 C.2    68  GLU68       0.2287
     43  O         12.9460   15.3840   36.9240 O.2    68  GLU68      -0.2864
     44  CB        11.5870   17.7160   34.9290 C.3    68  GLU68       0.0415
     45  CG        10.5860   16.5740   34.8630 C.3    68  GLU68       0.1163
     46  CD         9.6070   16.6350   33.7090 C.2    68  GLU68       0.3649
     47  OE1        9.7050   17.5290   32.8480 O.co2  68  GLU68      -0.2457
     48  OE2        8.7230   15.7600   33.6760 O.co2  68  GLU68      -0.2457
     49  N         14.6150   15.6340   39.7050 N.3    71  LEU71      -0.1231
     50  CA        13.4790   15.1840   40.5040 C.3    71  LEU71       0.1693
     51  C         13.1890   13.7250   40.2090 C.2    71  LEU71       0.2591
     52  O         13.2300   12.8750   41.1020 O.2    71  LEU71      -0.2718
     53  CB        12.2510   16.0320   40.1610 C.3    71  LEU71       0.0284
     54  CG        11.3660   16.6710   41.2190 C.3    71  LEU71       0.0019
     55  CD1       12.1210   17.1980   42.4290 C.3    71  LEU71       0.0001
     56  CD2       10.5730   17.8000   40.5350 C.3    71  LEU71       0.0001
     57  N         12.9280   13.4470   38.9350 N.am   72  LEU72      -0.1980
     58  CA        12.5980   12.1010   38.4660 C.3    72  LEU72       0.1596
     59  C         13.6570   11.0460   38.7950 C.2    72  LEU72       0.2287
     60  O         13.3160    9.9550   39.2020 O.2    72  LEU72      -0.2864
     61  CB        12.3380   12.1220   36.9580 C.3    72  LEU72       0.0297
     62  CG        10.9120   12.3440   36.4280 C.3    72  LEU72       0.0022
     63  CD1       10.0070   13.1040   37.3740 C.3    72  LEU72       0.0001
     64  CD2       10.9390   12.9990   35.0420 C.3    72  LEU72       0.0001
     65  N         13.3180   10.2030   42.7550 N.3    75  MET75      -0.1245
     66  CA        12.1080    9.6790   43.3970 C.3    75  MET75       0.1570
     67  C         11.9650    8.1840   43.2130 C.2    75  MET75       0.2261
     68  O         11.7480    7.7010   42.1080 O.2    75  MET75      -0.2867
     69  CB        10.8590   10.3880   42.8800 C.3    75  MET75       0.0387
     70  CG        11.0560   11.8610   42.7600 C.3    75  MET75       0.0595
     71  SD         9.7260   12.8620   43.3770 S.3    75  MET75      -0.1393
     72  CE         9.9820   12.4960   45.0980 C.3    75  MET75       0.0692
     73  N          4.8950    7.0510   44.2650 N.3    80  VAL80      -0.1231
     74  CA         5.3590    8.1810   43.4690 C.3    80  VAL80       0.1692
     75  C          5.8210    7.6500   42.1210 C.2    80  VAL80       0.2591
     76  O          6.3310    6.5420   42.0440 O.2    80  VAL80      -0.2718
     77  CB         6.5240    8.9330   44.1710 C.3    80  VAL80       0.0266
     78  CG1        6.9700   10.1390   43.3250 C.3    80  VAL80       0.0020
     79  CG2        6.0830    9.3900   45.5640 C.3    80  VAL80       0.0020
     80  N          5.6240    8.4390   41.0680 N.am   81  ILE81      -0.1980
     81  CA         6.1320    8.1040   39.7310 C.3    81  ILE81       0.1595
     82  C          7.5940    7.6380   39.7840 C.2    81  ILE81       0.2287
     83  O          8.4200    8.2180   40.4970 O.2    81  ILE81      -0.2864
     84  CB         6.0120    9.3190   38.7480 C.3    81  ILE81       0.0276
     85  CG1        6.4670    8.9160   37.3380 C.3    81  ILE81       0.0022
     86  CG2        6.8180   10.5150   39.2510 C.3    81  ILE81       0.0022
     87  CD1        6.4840   10.0460   36.3200 C.3    81  ILE81       0.0001
     88  N         11.0400    6.6920   37.3120 N.3    83  LEU83      -0.1245
     89  CA        11.6650    6.8920   36.0060 C.3    83  LEU83       0.1561
     90  C         12.2020    5.5430   35.5310 C.2    83  LEU83       0.2260
     91  O         13.1710    5.0040   36.0960 O.2    83  LEU83      -0.2867
     92  CB        12.8230    7.9000   36.0830 C.3    83  LEU83       0.0270
     93  CG        13.1250    8.9740   35.0210 C.3    83  LEU83       0.0019
     94  CD1       14.6300    9.1630   34.8460 C.3    83  LEU83       0.0001
     95  CD2       12.4420    8.8310   33.6840 C.3    83  LEU83       0.0001
     96  N         11.4030   11.0160   28.3730 N.3   101  LEU101     -0.1231
     97  CA        11.2650   10.4590   29.7140 C.3   101  LEU101      0.1693
     98  C         10.2170    9.3550   29.7300 C.2   101  LEU101      0.2592
     99  O          9.1100    9.5510   29.2480 O.2   101  LEU101     -0.2718
    100  CB        10.8500   11.5590   30.7020 C.3   101  LEU101      0.0284
    101  CG        11.7130   12.8250   30.7260 C.3   101  LEU101      0.0019
    102  CD1       10.9730   13.9630   31.4490 C.3   101  LEU101      0.0001
    103  CD2       13.0260   12.5310   31.3810 C.3   101  LEU101      0.0001
    104  N         10.5490    8.2230   30.3440 N.am  102  VAL102     -0.1966
    105  CA         9.6830    7.0500   30.3080 C.3   102  VAL102      0.1727
    106  C          9.2730    6.6050   31.7040 C.2   102  VAL102      0.2617
    107  O         10.1180    6.4500   32.5930 O.2   102  VAL102     -0.2715
    108  CB        10.3740    5.8630   29.5980 C.3   102  VAL102      0.0290
    109  CG1        9.4010    4.6880   29.4460 C.3   102  VAL102      0.0023
    110  CG2       10.9100    6.2910   28.2300 C.3   102  VAL102      0.0023
    111  N          7.9720    6.3750   31.8730 N.am  103  THR103     -0.1937
    112  CA         7.4270    5.8020   33.1010 C.3   103  THR103      0.2028
    113  C          6.3270    4.7850   32.7920 C.2   103  THR103      0.2642
    114  O          5.9790    4.5710   31.6230 O.2   103  THR103     -0.2714
    115  CB         6.9000    6.9060   34.0430 C.3   103  THR103      0.1808
    116  OG1        6.7080    6.3660   35.3530 O.3   103  THR103     -0.2208
    117  CG2        5.5960    7.4980   33.5150 C.3   103  THR103      0.0379
    118  N          5.8200    4.1280   33.8340 N.am  104  HIS104     -0.1959
    119  CA         4.7290    3.1520   33.6930 C.3   104  HIS104      0.1787
    120  C          3.4990    3.8600   33.1720 C.2   104  HIS104      0.2620
    121  O          3.2070    4.9560   33.6160 O.2   104  HIS104     -0.2715
    122  CB         4.3470    2.5430   35.0410 C.3   104  HIS104      0.0785
    123  CG         5.4750    1.8690   35.7440 C.ar  104  HIS104      0.0821
    124  ND1        5.7290    0.5230   35.6140 N.ar  104  HIS104     -0.2267
    125  CD2        6.4170    2.3520   36.5850 C.ar  104  HIS104      0.1154
    126  CE1        6.7830    0.2030   36.3440 C.ar  104  HIS104      0.1986
    127  NE2        7.2160    1.2950   36.9480 N.ar  104  HIS104     -0.2212
    128  N          2.7640    3.2270   32.2630 N.am  105  LEU105     -0.1963
    129  CA         1.5740    3.8560   31.6800 C.3   105  LEU105      0.1728
    130  C          0.4560    3.8880   32.7130 C.2   105  LEU105      0.2616
    131  O          0.1750    2.8800   33.3540 O.2   105  LEU105     -0.2715
    132  CB         1.1020    3.0790   30.4460 C.3   105  LEU105      0.0311
    133  CG        -0.1060    3.6380   29.6800 C.3   105  LEU105      0.0022
    134  CD1        0.1820    5.0210   29.1020 C.3   105  LEU105      0.0001
    135  CD2       -0.5030    2.6590   28.5740 C.3   105  LEU105      0.0001
    136  N         -0.1750    5.0440   32.8600 N.am  106  MET106     -0.1963
    137  CA        -1.2870    5.2040   33.7990 C.3   106  MET106      0.1736
    138  C         -2.5730    4.5520   33.2740 C.2   106  MET106      0.2617
    139  O         -2.9820    3.4920   33.7480 O.2   106  MET106     -0.2715
    140  CB        -1.5210    6.6970   34.0860 C.3   106  MET106      0.0427
    141  CG        -2.7660    7.0120   34.9220 C.3   106  MET106      0.0599
    142  SD        -2.7910    8.7210   35.5220 S.3   106  MET106     -0.1393
    143  CE        -2.7000    9.6060   33.9720 C.3   106  MET106      0.0692
    144  N         -3.2120    5.1770   32.2970 N.am  107  GLY107     -0.1955
    145  CA        -4.6020    4.8170   31.9860 C.3   107  GLY107      0.1869
    146  C         -5.5880    5.5070   32.9290 C.2   107  GLY107      0.2309
    147  O         -6.0550    6.6040   32.6250 O.2   107  GLY107     -0.2863
    148  N          8.0620   12.6060   49.5260 N.3   138  ILE138     -0.1245
    149  CA         8.5490   13.7590   48.7460 C.3   138  ILE138      0.1561
    150  C          8.8800   14.9440   49.6650 C.2   138  ILE138      0.2260
    151  O          9.8930   15.6010   49.4990 O.2   138  ILE138     -0.2867
    152  CB         7.6250   14.1700   47.5530 C.3   138  ILE138      0.0252
    153  CG1        6.3510   14.8480   47.9920 C.3   138  ILE138      0.0019
    154  CG2        7.2670   12.9560   46.6650 C.3   138  ILE138      0.0019
    155  CD1        5.6840   15.5690   46.8540 C.3   138  ILE138      0.0001
    156  N         10.7420   18.5120   48.6040 N.3   143  ILE143     -0.1231
    157  CA        10.0900   18.6090   47.3050 C.3   143  ILE143      0.1692
    158  C          8.6150   18.8420   47.5750 C.2   143  ILE143      0.2592
    159  O          8.0100   18.1000   48.3520 O.2   143  ILE143     -0.2718
    160  CB        10.2450   17.3260   46.4720 C.3   143  ILE143      0.0266
    161  CG1       11.7200   17.0760   46.1290 C.3   143  ILE143      0.0019
    162  CG2        9.4280   17.4410   45.1780 C.3   143  ILE143      0.0020
    163  CD1       12.0570   15.6480   45.7880 C.3   143  ILE143      0.0001
    164  N          8.0640   19.8740   46.9350 N.am  144  ILE144     -0.1966
    165  CA         6.6630   20.2230   47.0370 C.3   144  ILE144      0.1727
    166  C          6.0290   20.0100   45.6600 C.2   144  ILE144      0.2616
    167  O          6.5640   20.4520   44.6350 O.2   144  ILE144     -0.2715
    168  CB         6.4780   21.6980   47.4600 C.3   144  ILE144      0.0290
    169  CG1        7.2590   21.9970   48.7450 C.3   144  ILE144      0.0022
    170  CG2        4.9980   22.0320   47.6660 C.3   144  ILE144      0.0023
    171  CD1        7.2080   23.4490   49.1440 C.3   144  ILE144      0.0001
    172  N          4.8830   19.3480   45.6390 N.am  145  HIS145     -0.1973
    173  CA         4.1940   19.0920   44.3740 C.3   145  HIS145      0.1656
    174  C          3.5970   20.3970   43.8530 C.2   145  HIS145      0.2291
    175  O          3.8800   20.7960   42.7330 O.2   145  HIS145     -0.2864
    176  CB         3.1080   18.0210   44.5300 C.3   145  HIS145      0.0771
    177  CG         2.5600   17.5310   43.2220 C.ar  145  HIS145      0.0820
    178  ND1        1.7570   18.3060   42.4150 N.ar  145  HIS145     -0.2267
    179  CD2        2.7160   16.3530   42.5720 C.ar  145  HIS145      0.1154
    180  CE1        1.4360   17.6240   41.3280 C.ar  145  HIS145      0.1986
    181  NE2        1.9990   16.4330   41.4020 N.ar  145  HIS145     -0.2212
    182  N          1.5830    9.1660   42.7320 N.3   163  ILE163     -0.1231
    183  CA         1.5760   10.5990   42.5200 C.3   163  ILE163      0.1692
    184  C          2.4870   10.9280   41.3430 C.2   163  ILE163      0.2592
    185  O          3.6450   10.5180   41.3140 O.2   163  ILE163     -0.2718
    186  CB         2.1070   11.3510   43.7670 C.3   163  ILE163      0.0266
    187  CG1        1.2900   10.9860   45.0170 C.3   163  ILE163      0.0019
    188  CG2        2.1200   12.8560   43.5230 C.3   163  ILE163      0.0020
    189  CD1        1.8780   11.5520   46.3100 C.3   163  ILE163      0.0001
    190  N          1.9660   11.6850   40.3870 N.am  164  LEU164     -0.1966
    191  CA         2.7790   12.1940   39.2860 C.3   164  LEU164      0.1728
    192  C          2.3920   13.6230   38.9160 C.2   164  LEU164      0.2616
    193  O          1.6510   14.2930   39.6510 O.2   164  LEU164     -0.2715
    194  CB         2.7330   11.2370   38.0740 C.3   164  LEU164      0.0311
    195  CG         1.4800   10.9600   37.2240 C.3   164  LEU164      0.0022
    196  CD1        0.4560   10.1830   37.9760 C.3   164  LEU164      0.0001
    197  CD2        0.8470   12.2150   36.6030 C.3   164  LEU164      0.0001
    198  N          2.9510   14.1270   37.8200 N.am  165  ASP165     -0.1957
    199  CA         2.5440   15.4290   37.3130 C.3   165  ASP165      0.1840
    200  C          2.4280   15.3930   35.7940 C.2   165  ASP165      0.2622
    201  O          3.4400   15.3220   35.0930 O.2   165  ASP165     -0.2715
    202  CB         3.5040   16.5340   37.7660 C.3   165  ASP165      0.1450
    203  CG         2.9420   17.9230   37.5250 C.2   165  ASP165      0.3671
    204  OD1        2.1110   18.0750   36.6070 O.co2 165  ASP165     -0.2456
    205  OD2        3.3220   18.8630   38.2570 O.co2 165  ASP165     -0.2456
    206  N          1.1760   15.4480   35.3210 N.am  166  PHE166     -0.1974
    207  CA         0.7960   15.3440   33.9030 C.3   166  PHE166      0.1639
    208  C          0.7050   16.7390   33.2590 C.2   166  PHE166      0.2290
    209  O          0.1170   16.8960   32.1890 O.2   166  PHE166     -0.2864
    210  CB        -0.5770   14.6470   33.8110 C.3   166  PHE166      0.0560
    211  CG        -0.8590   13.9290   32.5000 C.ar  166  PHE166     -0.0200
    212  CD1       -0.2100   14.2560   31.3030 C.ar  166  PHE166     -0.0042
    213  CD2       -1.8280   12.9300   32.4660 C.ar  166  PHE166     -0.0042
    214  CE1       -0.5070   13.5850   30.1220 C.ar  166  PHE166     -0.0003
    215  CE2       -2.1310   12.2650   31.2850 C.ar  166  PHE166     -0.0003
    216  CZ        -1.4710   12.5920   30.1150 C.ar  166  PHE166     -0.0000
    217  N          1.6160   19.5860   31.0020 N.3   168  LEU168     -0.1245
    218  CA         2.3620   19.6970   29.7470 C.3   168  LEU168      0.1561
    219  C          2.3400   21.1210   29.1880 C.2   168  LEU168      0.2260
    220  O          2.8120   21.3490   28.0750 O.2   168  LEU168     -0.2867
    221  CB         1.7790   18.7400   28.6980 C.3   168  LEU168      0.0270
    222  CG         1.8370   17.2410   28.9900 C.3   168  LEU168      0.0019
    223  CD1        0.9710   16.4880   28.0000 C.3   168  LEU168      0.0001
    224  CD2        3.2720   16.7320   28.9620 C.3   168  LEU168      0.0001
@<TRIPOS>BOND
     1     1     2    1
     2    11    10    2
     3    10     9    1
     4     2     3    1
     5     2     5    1
     6     8     9    1
     7     3     4    2
     8     9    12    1
     9     7     5    1
    10     5     6    1
    11    22    23    2
    12    22    21    1
    13    12    13    1
    14    12    14    1
    15    21    20    1
    16    21    24    1
    17   223   222    1
    18   220   219    2
    19   110   108    1
    20    96    97    1
    21    25    24    1
    22    25    26    1
    23    17    16    1
    24    17    18    2
    25   135   133    1
    26    16    15    1
    27    16    19    1
    28   221   222    1
    29   221   218    1
    30   224   222    1
    31   134   133    1
    32   219   218    1
    33    99    98    2
    34   109   108    1
    35   108   105    1
    36    26    27    1
    37   133   132    1
    38    97    98    1
    39    97   100    1
    40    98   104   am
    41   218   217    1
    42   216   214   ar
    43   216   215   ar
    44   214   212   ar
    45   105   104    1
    46   105   106    1
    47   132   129    1
    48   100   101    1
    49   101   103    1
    50   101   102    1
    51    27    28    1
    52   215   213   ar
    53   212   211   ar
    54   114   113    2
    55   129   128    1
    56   129   130    1
    57   106   111   am
    58   106   107    2
    59   111   112    1
    60   145   144    1
    61   145   146    1
    62   209   208    2
    63   128   120   am
    64   144   138   am
    65   213   211   ar
    66   211   210    1
    67   147   146    2
    68   130   136   am
    69   130   131    2
    70   113   112    1
    71   113   118   am
    72    47    46   ar
    73   136   137    1
    74   112   115    1
    75   120   121    2
    76   120   119    1
    77   208   207    1
    78   138   139    2
    79   138   137    1
    80   117   115    1
    81    48    46   ar
    82    95    93    1
    83   119   118    1
    84   119   122    1
    85    46    45    1
    86   137   140    1
    87   210   207    1
    88   207   206    1
    89   143   142    1
    90   115   116    1
    91   140   141    1
    92    94    93    1
    93    45    44    1
    94   141   142    1
    95    44    41    1
    96    93    92    1
    97   122   123    1
    98    64    62    1
    99   201   200    2
   100   206   200   am
   101    90    89    1
   102    90    91    2
   103   124   123   ar
   104   124   126   ar
   105   123   125   ar
   106   200   199    1
   107    89    92    1
   108    89    88    1
   109    41    42    1
   110    41    40    1
   111    42    43    2
   112    29    30    1
   113    87    85    1
   114   126   127   ar
   115    40    31   am
   116    62    61    1
   117    62    63    1
   118   125   127   ar
   119   197   195    1
   120   204   203   ar
   121    61    58    1
   122   195   196    1
   123   195   194    1
   124   199   202    1
   125   199   198    1
   126    85    84    1
   127    31    30    1
   128    31    32    2
   129    30    33    1
   130   203   202    1
   131   203   205   ar
   132    38    37    1
   133    33    34    1
   134   198   192   am
   135   194   191    1
   136    58    59    1
   137    58    57    1
   138    37    39    1
   139    37    36    2
   140    84    86    1
   141    84    81    1
   142    59    60    2
   143   192   191    1
   144   192   193    2
   145    57    51   am
   146    34    35    1
   147    35    36    1
   148   191   190    1
   149    49    50    1
   150    81    82    1
   151    81    80    1
   152    82    83    2
   153    53    50    1
   154    53    54    1
   155    51    50    1
   156    51    52    2
   157   190   184   am
   158    56    54    1
   159    80    75   am
   160    54    55    1
   161   185   184    2
   162   180   181   ar
   163   180   178   ar
   164   184   183    1
   165   181   179   ar
   166    76    75    2
   167    68    67    2
   168    75    74    1
   169   178   177   ar
   170   183   182    1
   171   183   186    1
   172   179   177   ar
   173   175   174    2
   174    65    66    1
   175    70    69    1
   176    70    71    1
   177    69    66    1
   178    67    66    1
   179   177   176    1
   180    78    77    1
   181    71    72    1
   182    74    77    1
   183    74    73    1
   184   188   186    1
   185   186   187    1
   186   174   173    1
   187    77    79    1
   188   173   176    1
   189   173   172    1
   190   167   166    2
   191   187   189    1
   192   162   160    1
   193   172   166   am
   194   166   165    1
   195   163   161    1
   196   161   160    1
   197   160   157    1
   198   154   152    1
   199   155   153    1
   200   164   165    1
   201   164   158   am
   202   165   168    1
   203   157   158    1
   204   157   156    1
   205   168   170    1
   206   168   169    1
   207   152   153    1
   208   152   149    1
   209   158   159    2
   210   169   171    1
   211   149   148    1
   212   149   150    1
   213   151   150    2
