@<TRIPOS>MOLECULE
tmp/1wbtA00.pdb
 224 213 0 0 0
SMALL
GASTEIGER

@<TRIPOS>ATOM
      1  N         -1.0970   10.0400   23.1340 N.3    27  VAL27      -0.1245
      2  CA        -2.0770   10.2010   24.2100 C.3    27  VAL27       0.1561
      3  C         -2.4910   11.6840   24.2580 C.2    27  VAL27       0.2260
      4  O         -3.6820   12.0120   24.1860 O.2    27  VAL27      -0.2867
      5  CB        -1.5040    9.7130   25.5730 C.3    27  VAL27       0.0252
      6  CG1       -2.2520   10.3230   26.7650 C.3    27  VAL27       0.0019
      7  CG2       -1.5310    8.1800   25.6390 C.3    27  VAL27       0.0019
      8  N          3.1310   13.2980   24.4490 N.3    35  VAL35      -0.1245
      9  CA         3.1500   11.9840   25.0920 C.3    35  VAL35       0.1561
     10  C          2.6070   10.8790   24.1740 C.2    35  VAL35       0.2260
     11  O          1.5650   11.0670   23.5490 O.2    35  VAL35      -0.2867
     12  CB         2.3720   12.0060   26.4220 C.3    35  VAL35       0.0252
     13  CG1        2.4380   10.6730   27.0910 C.3    35  VAL35       0.0019
     14  CG2        2.9510   13.0940   27.3460 C.3    35  VAL35       0.0019
     15  N          4.5300    5.1470   29.1220 N.3    48  ALA48      -0.1245
     16  CA         4.3120    6.4750   28.5600 C.3    48  ALA48       0.1562
     17  C          5.6900    7.0050   28.3020 C.2    48  ALA48       0.2260
     18  O          6.5720    6.8580   29.1630 O.2    48  ALA48      -0.2867
     19  CB         3.5960    7.3430   29.5220 C.3    48  ALA48       0.0290
     20  N          7.3800   10.5790   27.1030 N.3    50  LYS50      -0.1245
     21  CA         7.1810   12.0010   26.8840 C.3    50  LYS50       0.1561
     22  C          8.3620   12.5850   26.1430 C.2    50  LYS50       0.2260
     23  O          9.5050   12.4990   26.5940 O.2    50  LYS50      -0.2867
     24  CB         6.9660   12.7370   28.2080 C.3    50  LYS50       0.0271
     25  CG         6.9130   14.2570   28.0530 C.3    50  LYS50       0.0035
     26  CD         6.3760   14.9770   29.2760 C.3    50  LYS50       0.0206
     27  CE         7.0620   14.5420   30.5890 C.3    50  LYS50       0.1093
     28  NZ         6.7500   15.5430   31.6660 N.3    50  LYS50      -0.1314
     29  N         15.5560   20.6330   35.9320 N.3    67  ARG67      -0.1231
     30  CA        14.7290   20.4180   37.1460 C.3    67  ARG67       0.1694
     31  C         13.8890   19.1210   37.1290 C.2    67  ARG67       0.2591
     32  O         13.9050   18.3390   38.0740 O.2    67  ARG67      -0.2718
     33  CB        13.7880   21.5980   37.3460 C.3    67  ARG67       0.0321
     34  CG        12.9740   21.5750   38.6320 C.3    67  ARG67       0.0489
     35  CD        11.8990   22.6400   38.6130 C.3    67  ARG67       0.2205
     36  NE        12.4560   23.9710   38.8310 N.pl3  67  ARG67      -0.0865
     37  CZ        12.3710   24.9840   37.9700 C.cat  67  ARG67       0.5346
     38  NH1       11.7290   24.8590   36.8040 N.pl3  67  ARG67       0.1354
     39  NH2       12.9480   26.1400   38.2690 N.pl3  67  ARG67       0.1354
     40  N         13.1640   18.8880   36.0450 N.am   68  GLU68      -0.1979
     41  CA        12.3270   17.7030   35.9300 C.3    68  GLU68       0.1602
     42  C         13.1260   16.3970   35.9490 C.2    68  GLU68       0.2287
     43  O         12.7150   15.3890   36.5230 O.2    68  GLU68      -0.2864
     44  CB        11.4930   17.7880   34.6510 C.3    68  GLU68       0.0415
     45  CG        10.4660   16.6790   34.5600 C.3    68  GLU68       0.1163
     46  CD         9.5150   16.8080   33.3740 C.2    68  GLU68       0.3649
     47  OE1        9.6150   17.7780   32.6020 O.co2  68  GLU68      -0.2457
     48  OE2        8.6460   15.9300   33.2390 O.co2  68  GLU68      -0.2457
     49  N         14.4130   15.8810   39.5070 N.3    71  LEU71      -0.1231
     50  CA        13.2460   15.3640   40.2760 C.3    71  LEU71       0.1693
     51  C         12.9280   13.8800   40.0370 C.2    71  LEU71       0.2591
     52  O         12.9210   13.0530   40.9690 O.2    71  LEU71      -0.2718
     53  CB        11.9960   16.1860   39.9320 C.3    71  LEU71       0.0284
     54  CG        11.2490   17.0790   40.9480 C.3    71  LEU71       0.0019
     55  CD1       11.9410   17.1690   42.3130 C.3    71  LEU71       0.0001
     56  CD2       11.0270   18.4550   40.3620 C.3    71  LEU71       0.0001
     57  N         12.6530   13.5600   38.7840 N.am   72  LEU72      -0.1980
     58  CA        12.3700   12.1920   38.3330 C.3    72  LEU72       0.1596
     59  C         13.4470   11.1500   38.6520 C.2    72  LEU72       0.2287
     60  O         13.1330    9.9980   39.0010 O.2    72  LEU72      -0.2864
     61  CB        12.1010   12.2360   36.8140 C.3    72  LEU72       0.0297
     62  CG        10.6510   12.3680   36.2720 C.3    72  LEU72       0.0022
     63  CD1        9.6160   12.8070   37.3040 C.3    72  LEU72       0.0001
     64  CD2       10.5680   13.2330   35.0010 C.3    72  LEU72       0.0001
     65  N         13.0960   10.5090   42.5860 N.3    75  MET75      -0.1245
     66  CA        11.8480    9.9460   43.1770 C.3    75  MET75       0.1570
     67  C         11.7850    8.4350   43.0480 C.2    75  MET75       0.2261
     68  O         11.6380    7.9250   41.9650 O.2    75  MET75      -0.2867
     69  CB        10.5680   10.4990   42.5040 C.3    75  MET75       0.0387
     70  CG        10.5270   11.9720   42.1900 C.3    75  MET75       0.0595
     71  SD         9.6930   13.1050   43.3070 S.3    75  MET75      -0.1393
     72  CE        10.2820   12.4550   44.8600 C.3    75  MET75       0.0692
     73  N          4.6910    7.2620   44.0660 N.3    80  VAL80      -0.1231
     74  CA         5.1970    8.3940   43.3290 C.3    80  VAL80       0.1692
     75  C          5.7100    7.8530   41.9830 C.2    80  VAL80       0.2591
     76  O          6.2390    6.7570   41.9180 O.2    80  VAL80      -0.2718
     77  CB         6.3910    9.0920   44.0600 C.3    80  VAL80       0.0266
     78  CG1        6.8710   10.2970   43.2240 C.3    80  VAL80       0.0020
     79  CG2        6.0050    9.5150   45.5160 C.3    80  VAL80       0.0020
     80  N          5.5320    8.6210   40.9310 N.am   81  ILE81      -0.1980
     81  CA         6.0390    8.2530   39.6100 C.3    81  ILE81       0.1595
     82  C          7.5120    7.7250   39.6590 C.2    81  ILE81       0.2287
     83  O          8.3820    8.3290   40.3030 O.2    81  ILE81      -0.2864
     84  CB         5.9480    9.4740   38.6620 C.3    81  ILE81       0.0276
     85  CG1        6.1920    9.0400   37.2100 C.3    81  ILE81       0.0022
     86  CG2        6.9300   10.6020   39.1100 C.3    81  ILE81       0.0022
     87  CD1        5.7650   10.0740   36.2160 C.3    81  ILE81       0.0001
     88  N         10.8730    6.8210   37.1890 N.3    83  LEU83      -0.1245
     89  CA        11.4770    7.0470   35.8580 C.3    83  LEU83       0.1561
     90  C         12.0730    5.7330   35.3640 C.2    83  LEU83       0.2260
     91  O         13.0340    5.2140   35.9420 O.2    83  LEU83      -0.2867
     92  CB        12.5860    8.0940   35.9490 C.3    83  LEU83       0.0270
     93  CG        12.9110    9.1160   34.8480 C.3    83  LEU83       0.0019
     94  CD1       14.4230    9.1720   34.6940 C.3    83  LEU83       0.0001
     95  CD2       12.2400    8.8600   33.5260 C.3    83  LEU83       0.0001
     96  N         11.3890   11.0610   28.1610 N.3   101  LEU101     -0.1231
     97  CA        11.2910   10.3910   29.4660 C.3   101  LEU101      0.1693
     98  C         10.2670    9.2930   29.3940 C.2   101  LEU101      0.2592
     99  O          9.2320    9.4530   28.7700 O.2   101  LEU101     -0.2718
    100  CB        10.8790   11.3800   30.5610 C.3   101  LEU101      0.0284
    101  CG        11.6310   12.7120   30.5810 C.3   101  LEU101      0.0019
    102  CD1       10.8340   13.7420   31.3120 C.3   101  LEU101      0.0001
    103  CD2       12.9770   12.5190   31.2180 C.3   101  LEU101      0.0001
    104  N         10.5290    8.2020   30.0870 N.am  102  VAL102     -0.1966
    105  CA         9.6580    7.0520   30.0590 C.3   102  VAL102      0.1727
    106  C          9.2670    6.6570   31.4680 C.2   102  VAL102      0.2617
    107  O         10.1280    6.5500   32.3600 O.2   102  VAL102     -0.2715
    108  CB        10.3690    5.8420   29.3620 C.3   102  VAL102      0.0290
    109  CG1        9.4410    4.6280   29.3050 C.3   102  VAL102      0.0023
    110  CG2       10.8590    6.2480   27.9340 C.3   102  VAL102      0.0023
    111  N          7.9660    6.4220   31.6590 N.am  103  THR103     -0.1937
    112  CA         7.4610    5.8140   32.8910 C.3   103  THR103      0.2028
    113  C          6.2950    4.8310   32.6140 C.2   103  THR103      0.2642
    114  O          5.9270    4.6210   31.4680 O.2   103  THR103     -0.2714
    115  CB         7.0550    6.8930   33.9170 C.3   103  THR103      0.1808
    116  OG1        6.7340    6.2660   35.1660 O.3   103  THR103     -0.2208
    117  CG2        5.8680    7.6980   33.3940 C.3   103  THR103      0.0379
    118  N          5.7630    4.2090   33.6690 N.am  104  HIS104     -0.1959
    119  CA         4.6790    3.2490   33.5430 C.3   104  HIS104      0.1787
    120  C          3.4830    4.0120   33.0610 C.2   104  HIS104      0.2620
    121  O          3.2780    5.1670   33.4670 O.2   104  HIS104     -0.2715
    122  CB         4.3060    2.5950   34.8840 C.3   104  HIS104      0.0785
    123  CG         5.4500    1.9490   35.6010 C.ar  104  HIS104      0.0821
    124  ND1        6.4520    2.6750   36.2130 N.ar  104  HIS104     -0.2267
    125  CD2        5.7290    0.6470   35.8410 C.ar  104  HIS104      0.1154
    126  CE1        7.3140    1.8460   36.7740 C.ar  104  HIS104      0.1986
    127  NE2        6.8910    0.6100   36.5720 N.ar  104  HIS104     -0.2212
    128  N          2.6900    3.3660   32.2160 N.am  105  LEU105     -0.1963
    129  CA         1.5300    4.0070   31.5800 C.3   105  LEU105      0.1728
    130  C          0.3860    4.0400   32.5660 C.2   105  LEU105      0.2616
    131  O          0.0470    3.0290   33.1910 O.2   105  LEU105     -0.2715
    132  CB         1.1000    3.2490   30.3130 C.3   105  LEU105      0.0311
    133  CG        -0.0270    3.8310   29.4430 C.3   105  LEU105      0.0022
    134  CD1        0.3210    5.1720   28.8390 C.3   105  LEU105      0.0001
    135  CD2       -0.3800    2.8280   28.3430 C.3   105  LEU105      0.0001
    136  N         -0.2140    5.2070   32.6860 N.am  106  MET106     -0.1963
    137  CA        -1.3740    5.3970   33.5230 C.3   106  MET106      0.1736
    138  C         -2.6600    4.8270   32.8930 C.2   106  MET106      0.2617
    139  O         -3.1280    3.7450   33.2670 O.2   106  MET106     -0.2715
    140  CB        -1.5400    6.8940   33.8120 C.3   106  MET106      0.0427
    141  CG        -2.8360    7.2510   34.5300 C.3   106  MET106      0.0599
    142  SD        -2.8230    8.9110   35.2090 S.3   106  MET106     -0.1393
    143  CE        -2.6240    9.8670   33.6910 C.3   106  MET106      0.0692
    144  N         -3.2350    5.5490   31.9390 N.am  107  GLY107     -0.1955
    145  CA        -4.6480    5.3250   31.5890 C.3   107  GLY107      0.1869
    146  C         -5.5660    5.9680   32.6290 C.2   107  GLY107      0.2309
    147  O         -5.8420    7.1690   32.5470 O.2   107  GLY107     -0.2863
    148  N          7.9550   12.7890   49.5100 N.3   138  ILE138     -0.1245
    149  CA         8.4570   13.8990   48.7240 C.3   138  ILE138      0.1561
    150  C          8.7630   15.1270   49.6000 C.2   138  ILE138      0.2260
    151  O          9.8000   15.7740   49.4320 O.2   138  ILE138     -0.2867
    152  CB         7.5650   14.2430   47.4930 C.3   138  ILE138      0.0252
    153  CG1        6.2140   14.8000   47.8570 C.3   138  ILE138      0.0019
    154  CG2        7.4150   13.0420   46.5700 C.3   138  ILE138      0.0019
    155  CD1        5.8560   15.9460   46.9800 C.3   138  ILE138      0.0001
    156  N         10.6660   18.6630   48.5270 N.3   143  ILE143     -0.1231
    157  CA         9.9780   18.8040   47.2380 C.3   143  ILE143      0.1692
    158  C          8.5120   19.1230   47.5170 C.2   143  ILE143      0.2592
    159  O          7.8710   18.4270   48.3100 O.2   143  ILE143     -0.2718
    160  CB        10.0580   17.5270   46.3850 C.3   143  ILE143      0.0266
    161  CG1       11.5090   17.2400   45.9650 C.3   143  ILE143      0.0019
    162  CG2        9.1810   17.6950   45.1410 C.3   143  ILE143      0.0020
    163  CD1       11.8000   15.7710   45.5680 C.3   143  ILE143      0.0001
    164  N          8.0110   20.1890   46.8950 N.am  144  ILE144     -0.1966
    165  CA         6.6060   20.5730   46.9730 C.3   144  ILE144      0.1727
    166  C          5.9570   20.2850   45.5920 C.2   144  ILE144      0.2616
    167  O          6.5100   20.6690   44.5270 O.2   144  ILE144     -0.2715
    168  CB         6.4870   22.0440   47.3370 C.3   144  ILE144      0.0290
    169  CG1        7.2540   22.3320   48.6390 C.3   144  ILE144      0.0022
    170  CG2        5.0610   22.4650   47.5370 C.3   144  ILE144      0.0023
    171  CD1        7.2940   23.7840   48.9580 C.3   144  ILE144      0.0001
    172  N          4.8180   19.5910   45.6000 N.am  145  HIS145     -0.1973
    173  CA         4.1350   19.3030   44.3570 C.3   145  HIS145      0.1656
    174  C          3.4870   20.5660   43.8030 C.2   145  HIS145      0.2291
    175  O          3.7440   20.9110   42.6590 O.2   145  HIS145     -0.2864
    176  CB         3.1240   18.1790   44.5170 C.3   145  HIS145      0.0771
    177  CG         2.5450   17.7150   43.2180 C.ar  145  HIS145      0.0820
    178  ND1        1.7500   18.5180   42.4420 N.ar  145  HIS145     -0.2267
    179  CD2        2.6500   16.5460   42.5590 C.ar  145  HIS145      0.1154
    180  CE1        1.3760   17.8590   41.3660 C.ar  145  HIS145      0.1986
    181  NE2        1.8930   16.6500   41.4200 N.ar  145  HIS145     -0.2212
    182  N          1.4330    9.3760   42.5270 N.3   163  ILE163     -0.1231
    183  CA         1.4030   10.7920   42.3290 C.3   163  ILE163      0.1692
    184  C          2.3160   11.1190   41.1670 C.2   163  ILE163      0.2592
    185  O          3.5190   10.8030   41.1720 O.2   163  ILE163     -0.2718
    186  CB         1.9470   11.5480   43.5870 C.3   163  ILE163      0.0266
    187  CG1        1.1040   11.2010   44.8210 C.3   163  ILE163      0.0019
    188  CG2        2.0020   13.0490   43.3040 C.3   163  ILE163      0.0020
    189  CD1        1.6340   11.7750   46.1040 C.3   163  ILE163      0.0001
    190  N          1.7830   11.8120   40.1870 N.am  164  LEU164     -0.1966
    191  CA         2.6420   12.3030   39.1440 C.3   164  LEU164      0.1728
    192  C          2.2880   13.7340   38.7930 C.2   164  LEU164      0.2616
    193  O          1.5790   14.4280   39.5440 O.2   164  LEU164     -0.2715
    194  CB         2.6630   11.3390   37.9520 C.3   164  LEU164      0.0311
    195  CG         1.4540   11.0560   37.0400 C.3   164  LEU164      0.0022
    196  CD1        0.8710    9.6750   37.3040 C.3   164  LEU164      0.0001
    197  CD2        0.4190   12.1490   37.0350 C.3   164  LEU164      0.0001
    198  N          2.8680   14.2200   37.7110 N.am  165  ASP165     -0.1957
    199  CA         2.4890   15.5270   37.2150 C.3   165  ASP165      0.1840
    200  C          2.4240   15.4210   35.7000 C.2   165  ASP165      0.2622
    201  O          3.4470   15.2060   35.0350 O.2   165  ASP165     -0.2715
    202  CB         3.4680   16.6030   37.6780 C.3   165  ASP165      0.1450
    203  CG         2.8940   17.9940   37.5830 C.2   165  ASP165      0.3671
    204  OD1        1.9290   18.2010   36.8170 O.co2 165  ASP165     -0.2456
    205  OD2        3.4330   18.8980   38.2490 O.co2 165  ASP165     -0.2456
    206  N          1.1890   15.5320   35.2040 N.am  166  PHE166     -0.1974
    207  CA         0.8130   15.3800   33.8090 C.3   166  PHE166      0.1639
    208  C          0.6340   16.7830   33.1970 C.2   166  PHE166      0.2290
    209  O         -0.2210   16.9770   32.3300 O.2   166  PHE166     -0.2864
    210  CB        -0.5260   14.6100   33.7730 C.3   166  PHE166      0.0560
    211  CG        -0.8430   13.9130   32.4620 C.ar  166  PHE166     -0.0200
    212  CD1       -0.1830   14.2180   31.2640 C.ar  166  PHE166     -0.0042
    213  CD2       -1.8560   12.9470   32.4410 C.ar  166  PHE166     -0.0042
    214  CE1       -0.5150   13.5510   30.0810 C.ar  166  PHE166     -0.0003
    215  CE2       -2.2030   12.2950   31.2670 C.ar  166  PHE166     -0.0003
    216  CZ        -1.5390   12.5950   30.0810 C.ar  166  PHE166     -0.0000
    217  N          1.6790   19.5070   30.7700 N.3   168  LEU168     -0.1245
    218  CA         2.3830   19.6440   29.4890 C.3   168  LEU168      0.1561
    219  C          2.4110   21.0890   28.9770 C.2   168  LEU168      0.2260
    220  O          2.8930   21.3340   27.8670 O.2   168  LEU168     -0.2867
    221  CB         1.7250   18.7540   28.4250 C.3   168  LEU168      0.0270
    222  CG         1.7620   17.2420   28.6450 C.3   168  LEU168      0.0019
    223  CD1        1.0600   16.5020   27.5220 C.3   168  LEU168      0.0001
    224  CD2        3.2010   16.7470   28.7950 C.3   168  LEU168      0.0001
@<TRIPOS>BOND
     1     1     2    1
     2    11    10    2
     3    10     9    1
     4     4     3    2
     5     2     3    1
     6     2     5    1
     7     8     9    1
     8     9    12    1
     9     5     7    1
    10     5     6    1
    11    22    23    2
    12    22    21    1
    13    12    13    1
    14    12    14    1
    15    21    20    1
    16    21    24    1
    17   223   222    1
    18   220   219    2
    19   110   108    1
    20    25    24    1
    21    25    26    1
    22    96    97    1
    23    17    16    1
    24    17    18    2
    25   135   133    1
    26   221   222    1
    27   221   218    1
    28    16    15    1
    29    16    19    1
    30   222   224    1
    31    99    98    2
    32   134   133    1
    33   219   218    1
    34    26    27    1
    35   109   108    1
    36   108   105    1
    37    98    97    1
    38    98   104   am
    39   133   132    1
    40    97   100    1
    41   218   217    1
    42   105   104    1
    43   105   106    1
    44   214   216   ar
    45   214   212   ar
    46   216   215   ar
    47   132   129    1
    48   100   101    1
    49   101   103    1
    50   101   102    1
    51    27    28    1
    52   212   211   ar
    53   215   213   ar
    54   106   111   am
    55   106   107    2
    56   114   113    2
    57   129   128    1
    58   129   130    1
    59   145   144    1
    60   145   146    1
    61   111   112    1
    62   144   138   am
    63   128   120   am
    64   209   208    2
    65   213   211   ar
    66   211   210    1
    67   147   146    2
    68   130   136   am
    69   130   131    2
    70    47    46   ar
    71   113   112    1
    72   113   118   am
    73   136   137    1
    74   112   115    1
    75   138   139    2
    76   138   137    1
    77   120   121    2
    78   120   119    1
    79   208   207    1
    80    48    46   ar
    81    46    45    1
    82   117   115    1
    83   137   140    1
    84    95    93    1
    85   119   118    1
    86   119   122    1
    87   143   142    1
    88   210   207    1
    89   207   206    1
    90   140   141    1
    91   115   116    1
    92   141   142    1
    93    45    44    1
    94    44    41    1
    95    94    93    1
    96    93    92    1
    97   122   123    1
    98    64    62    1
    99   201   200    2
   100   206   200   am
   101    90    89    1
   102    90    91    2
   103   123   125   ar
   104   123   124   ar
   105   200   199    1
   106   125   127   ar
   107    89    92    1
   108    89    88    1
   109    41    42    1
   110    41    40    1
   111    29    30    1
   112    42    43    2
   113    40    31   am
   114   124   126   ar
   115    87    85    1
   116    62    61    1
   117    62    63    1
   118   127   126   ar
   119    38    37    1
   120    61    58    1
   121   204   203   ar
   122   197   195    1
   123   195   196    1
   124   195   194    1
   125    31    30    1
   126    31    32    2
   127    30    33    1
   128    85    84    1
   129   199   202    1
   130   199   198    1
   131    33    34    1
   132   203   202    1
   133   203   205   ar
   134   198   192   am
   135   194   191    1
   136    37    39    1
   137    37    36    2
   138    58    59    1
   139    58    57    1
   140    35    34    1
   141    35    36    1
   142    59    60    2
   143    84    86    1
   144    84    81    1
   145    57    51   am
   146   192   191    1
   147   192   193    2
   148   191   190    1
   149    49    50    1
   150    81    82    1
   151    81    80    1
   152    82    83    2
   153    53    50    1
   154    53    54    1
   155    51    50    1
   156    51    52    2
   157   190   184   am
   158    56    54    1
   159    80    75   am
   160    54    55    1
   161   184   185    2
   162   184   183    1
   163   180   181   ar
   164   180   178   ar
   165   181   179   ar
   166    76    75    2
   167    68    67    2
   168    75    74    1
   169    70    69    1
   170    70    71    1
   171   183   182    1
   172   183   186    1
   173   178   177   ar
   174    69    66    1
   175   179   177   ar
   176    65    66    1
   177   175   174    2
   178    67    66    1
   179   177   176    1
   180    78    77    1
   181   188   186    1
   182    71    72    1
   183    74    77    1
   184    74    73    1
   185   186   187    1
   186   174   173    1
   187    77    79    1
   188   173   176    1
   189   173   172    1
   190   167   166    2
   191   187   189    1
   192   162   160    1
   193   163   161    1
   194   166   172   am
   195   166   165    1
   196   161   160    1
   197   160   157    1
   198   154   152    1
   199   164   165    1
   200   164   158   am
   201   165   168    1
   202   155   153    1
   203   157   158    1
   204   157   156    1
   205   168   170    1
   206   168   169    1
   207   152   153    1
   208   152   149    1
   209   158   159    2
   210   169   171    1
   211   149   148    1
   212   149   150    1
   213   151   150    2
