@<TRIPOS>MOLECULE
tmp/1wbuA00.pdb
 98 95 0 0 0
SMALL
GASTEIGER

@<TRIPOS>ATOM
      1  N         30.9460    4.0040    8.0460 N.3    12  HIS12      -0.1241
      2  CA        30.1950    2.8440    8.5120 C.3    12  HIS12       0.1621
      3  C         28.7180    2.7710    8.1330 C.2    12  HIS12       0.2264
      4  O         28.1020    1.7140    8.2540 O.2    12  HIS12      -0.2867
      5  CB        30.3890    2.6440   10.0160 C.3    12  HIS12       0.0745
      6  CG        31.7980    2.3180   10.3990 C.ar   12  HIS12       0.0817
      7  ND1       32.5400    3.1060   11.2520 N.ar   12  HIS12      -0.2268
      8  CD2       32.6000    1.2860   10.0490 C.ar   12  HIS12       0.1154
      9  CE1       33.7370    2.5720   11.4110 C.ar   12  HIS12       0.1986
     10  NE2       33.7990    1.4660   10.6930 N.ar   12  HIS12      -0.2212
     11  N         42.9250    0.6860    4.2150 N.3    41  LYS41      -0.1245
     12  CA        42.3320    0.2830    5.4840 C.3    41  LYS41       0.1561
     13  C         42.0370   -1.2040    5.3690 C.2    41  LYS41       0.2260
     14  O         41.2700   -1.6280    4.5090 O.2    41  LYS41      -0.2867
     15  CB        41.0560    1.0740    5.7870 C.3    41  LYS41       0.0271
     16  CG        40.4410    0.7300    7.1370 C.3    41  LYS41       0.0035
     17  CD        39.2660    1.6350    7.4960 C.3    41  LYS41       0.0206
     18  CE        38.6900    1.2490    8.8570 C.3    41  LYS41       0.1093
     19  NZ        37.5440    2.1080    9.2820 N.3    41  LYS41      -0.1314
     20  N         40.4090   -3.4560    7.2570 N.3    43  VAL43      -0.1231
     21  CA        39.1000   -3.9940    7.6320 C.3    43  VAL43       0.1692
     22  C         38.0980   -2.8790    7.9420 C.2    43  VAL43       0.2592
     23  O         38.4160   -1.9270    8.6520 O.2    43  VAL43      -0.2718
     24  CB        39.2100   -4.9160    8.8650 C.3    43  VAL43       0.0266
     25  CG1       37.8360   -5.4050    9.2860 C.3    43  VAL43       0.0020
     26  CG2       40.1290   -6.0940    8.5660 C.3    43  VAL43       0.0020
     27  N         36.8860   -3.0050    7.4100 N.am   44  ASN44      -0.1960
     28  CA        35.8480   -2.0040    7.6350 C.3    44  ASN44       0.1819
     29  C         34.4600   -2.5970    7.4140 C.2    44  ASN44       0.2621
     30  O         34.2620   -3.4120    6.5160 O.2    44  ASN44      -0.2715
     31  CB        36.0450   -0.8080    6.7040 C.3    44  ASN44       0.1195
     32  CG        35.1180    0.3480    7.0370 C.2    44  ASN44       0.2630
     33  OD1       35.2450    0.9720    8.0900 O.2    44  ASN44      -0.2716
     34  ND2       34.1800    0.6370    6.1430 N.am   44  ASN44      -0.0877
     35  N         33.5010   -2.1800    8.2320 N.am   45  THR45      -0.1951
     36  CA        32.1440   -2.7060    8.1390 C.3    45  THR45       0.1897
     37  C         31.1440   -1.6050    7.8160 C.2    45  THR45       0.2313
     38  O         31.1950   -0.5210    8.3940 O.2    45  THR45      -0.2863
     39  CB        31.7140   -3.4000    9.4420 C.3    45  THR45       0.1794
     40  OG1       32.6530   -4.4320    9.7680 O.3    45  THR45      -0.2208
     41  CG2       30.3290   -4.0110    9.2780 C.3    45  THR45       0.0378
     42  N         36.4090   -3.3090   23.0440 N.3    66  LYS66      -0.1245
     43  CA        37.6330   -4.0850   22.8860 C.3    66  LYS66       0.1561
     44  C         38.8640   -3.4230   23.5100 C.2    66  LYS66       0.2260
     45  O         39.7770   -4.1140   23.9610 O.2    66  LYS66      -0.2867
     46  CB        37.8750   -4.4160   21.4100 C.3    66  LYS66       0.0271
     47  CG        36.8910   -5.4250   20.8420 C.3    66  LYS66       0.0035
     48  CD        37.0440   -5.5740   19.3340 C.3    66  LYS66       0.0206
     49  CE        36.0870   -6.6210   18.7820 C.3    66  LYS66       0.1093
     50  NZ        36.1020   -6.6590   17.2930 N.3    66  LYS66      -0.1314
     51  N         30.9590   -6.6860    5.7180 N.3    83  ASP83      -0.1239
     52  CA        32.3620   -6.5810    6.0790 C.3    83  ASP83       0.1674
     53  C         33.2100   -6.4330    4.8210 C.2    83  ASP83       0.2266
     54  O         32.9740   -7.1010    3.8130 O.2    83  ASP83      -0.2867
     55  CB        32.8090   -7.8080    6.8750 C.3    83  ASP83       0.1410
     56  CG        32.0750   -7.9460    8.1950 C.2    83  ASP83       0.3668
     57  OD1       32.2060   -7.0400    9.0480 O.co2  83  ASP83      -0.2456
     58  OD2       31.3660   -8.9610    8.3810 O.co2  83  ASP83      -0.2456
     59  N         32.4190    5.0310   16.8090 N.3   119  HIS119     -0.1226
     60  CA        33.3610    3.9630   16.4970 C.3   119  HIS119      0.1752
     61  C         32.6080    2.6510   16.2860 C.2   119  HIS119      0.2596
     62  O         31.6770    2.3440   17.0260 O.2   119  HIS119     -0.2718
     63  CB        34.3850    3.8400   17.6330 C.3   119  HIS119      0.0759
     64  CG        35.2830    2.6470   17.5280 C.ar  119  HIS119      0.0818
     65  ND1       35.1330    1.5310   18.3240 N.ar  119  HIS119     -0.2268
     66  CD2       36.3570    2.4050   16.7380 C.ar  119  HIS119      0.1154
     67  CE1       36.0770    0.6530   18.0300 C.ar  119  HIS119      0.1986
     68  NE2       36.8330    1.1600   17.0720 N.ar  119  HIS119     -0.2212
     69  N         33.0050    1.8860   15.2720 N.am  120  PHE120     -0.1962
     70  CA        32.4730    0.5380   15.0940 C.3   120  PHE120      0.1771
     71  C         33.4260   -0.4690   15.7230 C.2   120  PHE120      0.2620
     72  O         34.5840   -0.5880   15.3110 O.2   120  PHE120     -0.2715
     73  CB        32.2490    0.2250   13.6100 C.3   120  PHE120      0.0574
     74  CG        31.4440   -1.0240   13.3630 C.ar  120  PHE120     -0.0200
     75  CD1       32.0270   -2.2810   13.4580 C.ar  120  PHE120     -0.0042
     76  CD2       30.1000   -0.9410   13.0370 C.ar  120  PHE120     -0.0042
     77  CE1       31.2790   -3.4290   13.2280 C.ar  120  PHE120     -0.0003
     78  CE2       29.3500   -2.0850   12.8070 C.ar  120  PHE120     -0.0003
     79  CZ        29.9410   -3.3290   12.9030 C.ar  120  PHE120     -0.0000
     80  N         32.9500   -1.1800   16.7390 N.am  121  ASP121     -0.1957
     81  CA        33.8510   -1.9770   17.5570 C.3   121  ASP121      0.1840
     82  C         33.8830   -3.4290   17.0990 C.2   121  ASP121      0.2622
     83  O         34.9500   -4.0400   17.0450 O.2   121  ASP121     -0.2715
     84  CB        33.4930   -1.8730   19.0440 C.3   121  ASP121      0.1450
     85  CG        34.6740   -2.1820   19.9470 C.2   121  ASP121      0.3671
     86  OD1       35.7590   -1.6110   19.7030 O.co2 121  ASP121     -0.2456
     87  OD2       34.5230   -2.9840   20.8980 O.co2 121  ASP121     -0.2456
     88  N         32.7190   -3.9720   16.7540 N.am  122  ALA122     -0.1963
     89  CA        32.6150   -5.3930   16.4160 C.3   122  ALA122      0.1728
     90  C         31.2380   -5.7730   15.8780 C.2   122  ALA122      0.2616
     91  O         30.2680   -5.0380   16.0510 O.2   122  ALA122     -0.2715
     92  CB        32.9550   -6.2460   17.6340 C.3   122  ALA122      0.0334
     93  N         31.1580   -6.9300   15.2270 N.am  123  SER123     -0.1950
     94  CA        29.8740   -7.5880   15.0150 C.3   123  SER123      0.1924
     95  C         29.9110   -8.9910   15.6060 C.2   123  SER123      0.2314
     96  O         30.9760   -9.6020   15.6950 O.2   123  SER123     -0.2863
     97  CB        29.5280   -7.6510   13.5280 C.3   123  SER123      0.2116
     98  OG        30.4180   -8.5010   12.8360 O.3   123  SER123     -0.2180
@<TRIPOS>BOND
     1    54    53    2
     2    11    12    1
     3    14    13    2
     4    53    52    1
     5    13    12    1
     6    12    15    1
     7    51    52    1
     8    15    16    1
     9    52    55    1
    10    34    32   am
    11    30    29    2
    12    31    32    1
    13    31    28    1
    14    55    56    1
    15    32    33    2
    16    16    17    1
    17    20    21    1
    18    27    28    1
    19    27    22   am
    20    29    28    1
    21    29    35   am
    22    17    18    1
    23    21    22    1
    24    21    24    1
    25    37    36    1
    26    37    38    2
    27    22    23    2
    28     1     2    1
    29     3     4    2
    30     3     2    1
    31    36    35    1
    32    36    39    1
    33    56    58   ar
    34    56    57   ar
    35     2     5    1
    36    26    24    1
    37    18    19    1
    38    24    25    1
    39    41    39    1
    40    39    40    1
    41     5     6    1
    42     8     6   ar
    43     8    10   ar
    44     6     7   ar
    45    10     9   ar
    46     7     9   ar
    47    78    79   ar
    48    78    76   ar
    49    98    97    1
    50    79    77   ar
    51    76    74   ar
    52    77    75   ar
    53    74    75   ar
    54    74    73    1
    55    97    94    1
    56    73    70    1
    57    94    93    1
    58    94    95    1
    59    70    69    1
    60    70    71    1
    61    93    90   am
    62    69    61   am
    63    72    71    2
    64    95    96    2
    65    71    80   am
    66    90    91    2
    67    90    89    1
    68    61    60    1
    69    61    62    2
    70    89    88    1
    71    89    92    1
    72    60    59    1
    73    60    63    1
    74    66    68   ar
    75    66    64   ar
    76    80    81    1
    77    88    82   am
    78    83    82    2
    79    68    67   ar
    80    82    81    1
    81    50    49    1
    82    64    63    1
    83    64    65   ar
    84    81    84    1
    85    67    65   ar
    86    49    48    1
    87    84    85    1
    88    48    47    1
    89    86    85   ar
    90    85    87   ar
    91    47    46    1
    92    46    43    1
    93    43    42    1
    94    43    44    1
    95    44    45    2
