@<TRIPOS>MOLECULE
tmp/1wbvA00.pdb
 197 188 0 0 0
SMALL
GASTEIGER

@<TRIPOS>ATOM
      1  N          3.1350   13.5180   23.1930 N.3    35  VAL35      -0.1245
      2  CA         3.1670   12.2160   23.8950 C.3    35  VAL35       0.1561
      3  C          2.6480   11.0430   23.0420 C.2    35  VAL35       0.2260
      4  O          1.5830   11.1370   22.4090 O.2    35  VAL35      -0.2867
      5  CB         2.3580   12.2550   25.1980 C.3    35  VAL35       0.0252
      6  CG1        2.4640   10.9110   25.9490 C.3    35  VAL35       0.0019
      7  CG2        2.8360   13.4040   26.0910 C.3    35  VAL35       0.0019
      8  N          4.5510    5.5190   28.2060 N.3    48  ALA48      -0.1231
      9  CA         4.3110    6.8130   27.5940 C.3    48  ALA48       0.1694
     10  C          5.6720    7.4310   27.3050 C.2    48  ALA48       0.2592
     11  O          6.5600    7.4150   28.1680 O.2    48  ALA48      -0.2718
     12  CB         3.4860    7.7120   28.5260 C.3    48  ALA48       0.0304
     13  N          5.8360    7.9120   26.0750 N.am   49  VAL49      -0.1966
     14  CA         7.0390    8.5630   25.6110 C.3    49  VAL49       0.1727
     15  C          6.6760   10.0140   25.3190 C.2    49  VAL49       0.2616
     16  O          5.8140   10.2820   24.4720 O.2    49  VAL49      -0.2715
     17  CB         7.5790    7.8940   24.3190 C.3    49  VAL49       0.0290
     18  CG1        8.9320    8.4500   23.9450 C.3    49  VAL49       0.0023
     19  CG2        7.6600    6.3610   24.4850 C.3    49  VAL49       0.0023
     20  N          7.3020   10.9380   26.0430 N.am   50  LYS50      -0.1977
     21  CA         7.0750   12.3690   25.8470 C.3    50  LYS50       0.1596
     22  C          8.3110   12.9660   25.2030 C.2    50  LYS50       0.2287
     23  O          9.4150   12.8780   25.7500 O.2    50  LYS50      -0.2864
     24  CB         6.7550   13.0810   27.1740 C.3    50  LYS50       0.0298
     25  CG         6.6140   14.6210   27.0280 C.3    50  LYS50       0.0038
     26  CD         6.0160   15.2810   28.2740 C.3    50  LYS50       0.0206
     27  CE         6.9930   15.2850   29.4430 C.3    50  LYS50       0.1093
     28  NZ         6.5090   16.1550   30.5880 N.3    50  LYS50      -0.1314
     29  N         15.1200   21.1980   35.1170 N.3    67  ARG67      -0.1231
     30  CA        14.3070   20.9910   36.3080 C.3    67  ARG67       0.1694
     31  C         13.4870   19.7010   36.2550 C.2    67  ARG67       0.2591
     32  O         13.5170   18.9120   37.2000 O.2    67  ARG67      -0.2718
     33  CB        13.3570   22.1730   36.5280 C.3    67  ARG67       0.0321
     34  CG        12.4720   22.0170   37.7600 C.3    67  ARG67       0.0489
     35  CD        11.4590   23.1670   37.9340 C.3    67  ARG67       0.2205
     36  NE        12.1530   24.4550   38.0850 N.pl3  67  ARG67      -0.0865
     37  CZ        12.0250   25.5070   37.2710 C.cat  67  ARG67       0.5346
     38  NH1       11.2140   25.4900   36.2100 N.pl3  67  ARG67       0.1354
     39  NH2       12.7240   26.6120   37.5250 N.pl3  67  ARG67       0.1354
     40  N         12.7410   19.5080   35.1710 N.am   68  GLU68      -0.1979
     41  CA        11.9170   18.3030   35.0260 C.3    68  GLU68       0.1602
     42  C         12.7670   17.0360   35.0710 C.2    68  GLU68       0.2287
     43  O         12.4180   16.0790   35.7550 O.2    68  GLU68      -0.2864
     44  CB        11.1010   18.3180   33.7210 C.3    68  GLU68       0.0415
     45  CG        10.2960   17.0300   33.5420 C.3    68  GLU68       0.1163
     46  CD         9.2280   17.1120   32.4910 C.2    68  GLU68       0.3649
     47  OE1        9.3450   17.9510   31.5690 O.co2  68  GLU68      -0.2457
     48  OE2        8.2710   16.3210   32.5810 O.co2  68  GLU68      -0.2457
     49  N         14.0260   16.4380   38.6860 N.3    71  LEU71      -0.1231
     50  CA        12.9360   15.9260   39.5390 C.3    71  LEU71       0.1693
     51  C         12.6360   14.4640   39.2080 C.2    71  LEU71       0.2591
     52  O         12.6130   13.5980   40.0820 O.2    71  LEU71      -0.2718
     53  CB        11.6580   16.7420   39.3310 C.3    71  LEU71       0.0284
     54  CG        11.1380   17.7900   40.3230 C.3    71  LEU71       0.0019
     55  CD1       11.9900   18.0140   41.5410 C.3    71  LEU71       0.0001
     56  CD2       10.8760   19.0940   39.5880 C.3    71  LEU71       0.0001
     57  N         12.3910   14.2030   37.9350 N.am   72  LEU72      -0.1980
     58  CA        12.0670   12.8360   37.4810 C.3    72  LEU72       0.1596
     59  C         13.1410   11.8070   37.8130 C.2    72  LEU72       0.2287
     60  O         12.8160   10.6940   38.2360 O.2    72  LEU72      -0.2864
     61  CB        11.7860   12.8350   35.9800 C.3    72  LEU72       0.0297
     62  CG        10.3400   12.8890   35.4780 C.3    72  LEU72       0.0022
     63  CD1        9.3710   13.5190   36.4470 C.3    72  LEU72       0.0001
     64  CD2       10.2490   13.4880   34.0630 C.3    72  LEU72       0.0001
     65  N         12.8120   11.0370   41.7870 N.3    75  MET75      -0.1245
     66  CA        11.6090   10.4630   42.4200 C.3    75  MET75       0.1570
     67  C         11.5510    8.9530   42.2470 C.2    75  MET75       0.2261
     68  O         11.3640    8.4750   41.1260 O.2    75  MET75      -0.2867
     69  CB        10.2980   11.0350   41.8200 C.3    75  MET75       0.0387
     70  CG        10.2870   12.4950   41.4370 C.3    75  MET75       0.0595
     71  SD         9.4190   13.6040   42.5520 S.3    75  MET75      -0.1393
     72  CE        10.2990   13.1060   43.9970 C.3    75  MET75       0.0692
     73  N          4.4850    7.8450   43.2090 N.3    80  VAL80      -0.1231
     74  CA         4.9550    8.9860   42.4400 C.3    80  VAL80       0.1692
     75  C          5.4710    8.4770   41.0950 C.2    80  VAL80       0.2591
     76  O          6.0190    7.3890   41.0120 O.2    80  VAL80      -0.2718
     77  CB         6.1070    9.7750   43.1570 C.3    80  VAL80       0.0266
     78  CG1        6.5180   10.9970   42.3310 C.3    80  VAL80       0.0020
     79  CG2        5.7280   10.1930   44.5810 C.3    80  VAL80       0.0020
     80  N          5.2660    9.2590   40.0430 N.am   81  ILE81      -0.1980
     81  CA         5.7960    8.9350   38.7120 C.3    81  ILE81       0.1595
     82  C          7.2780    8.5630   38.7800 C.2    81  ILE81       0.2287
     83  O          8.0680    9.2310   39.4630 O.2    81  ILE81      -0.2864
     84  CB         5.6000   10.1040   37.7140 C.3    81  ILE81       0.0276
     85  CG1        6.1590    9.7510   36.3310 C.3    81  ILE81       0.0022
     86  CG2        6.2880   11.3990   38.2040 C.3    81  ILE81       0.0022
     87  CD1        5.9840   10.8550   35.3240 C.3    81  ILE81       0.0001
     88  N         10.8180    7.5070   36.4330 N.3    83  LEU83      -0.1245
     89  CA        11.4330    7.6510   35.1080 C.3    83  LEU83       0.1561
     90  C         11.9660    6.2780   34.7200 C.2    83  LEU83       0.2260
     91  O         12.8770    5.7590   35.3620 O.2    83  LEU83      -0.2867
     92  CB        12.5800    8.6630   35.1240 C.3    83  LEU83       0.0270
     93  CG        12.7270    9.7450   34.0560 C.3    83  LEU83       0.0019
     94  CD1       14.2280   10.0240   33.8220 C.3    83  LEU83       0.0001
     95  CD2       11.9730    9.5360   32.7510 C.3    83  LEU83       0.0001
     96  N         11.3200   11.5010   27.2800 N.3   101  LEU101     -0.1231
     97  CA        11.1500   10.9380   28.6110 C.3   101  LEU101      0.1693
     98  C         10.1530    9.8040   28.5170 C.2   101  LEU101      0.2592
     99  O          9.1180    9.9340   27.8400 O.2   101  LEU101     -0.2718
    100  CB        10.6170   11.9960   29.5830 C.3   101  LEU101      0.0284
    101  CG        11.4190   13.2940   29.7680 C.3   101  LEU101      0.0019
    102  CD1       10.5210   14.3530   30.4230 C.3   101  LEU101      0.0001
    103  CD2       12.6580   13.0510   30.6000 C.3   101  LEU101      0.0001
    104  N         10.4560    8.7140   29.2140 N.am  102  VAL102     -0.1966
    105  CA         9.6250    7.5160   29.2220 C.3   102  VAL102      0.1727
    106  C          9.1860    7.1620   30.6370 C.2   102  VAL102      0.2616
    107  O         10.0080    7.1020   31.5760 O.2   102  VAL102     -0.2715
    108  CB        10.3860    6.2830   28.6150 C.3   102  VAL102      0.0290
    109  CG1        9.4620    5.0870   28.4860 C.3   102  VAL102      0.0023
    110  CG2       11.0050    6.6200   27.2670 C.3   102  VAL102      0.0023
    111  N          7.8940    6.9090   30.7860 N.am  103  THR103     -0.1951
    112  CA         7.3290    6.4150   32.0500 C.3   103  THR103      0.1897
    113  C          6.2250    5.3980   31.7840 C.2   103  THR103      0.2313
    114  O          5.8590    5.1600   30.6340 O.2   103  THR103     -0.2863
    115  CB         6.7760    7.5780   32.9280 C.3   103  THR103      0.1794
    116  OG1        6.3860    7.0670   34.2150 O.3   103  THR103     -0.2208
    117  CG2        5.5780    8.2470   32.2460 C.3   103  THR103      0.0378
    118  N          7.6600   13.3310   48.6320 N.3   138  ILE138     -0.1245
    119  CA         8.1550   14.5050   47.9270 C.3   138  ILE138      0.1561
    120  C          8.4600   15.6730   48.8910 C.2   138  ILE138      0.2260
    121  O          9.4730   16.3490   48.7500 O.2   138  ILE138     -0.2867
    122  CB         7.2460   14.9490   46.7410 C.3   138  ILE138      0.0252
    123  CG1        5.8960   15.4500   47.2020 C.3   138  ILE138      0.0019
    124  CG2        7.0420   13.7910   45.7510 C.3   138  ILE138      0.0019
    125  CD1        5.2070   16.3740   46.1710 C.3   138  ILE138      0.0001
    126  N         10.3270   19.2550   47.8950 N.3   143  ILE143     -0.1231
    127  CA         9.7030   19.3790   46.5900 C.3   143  ILE143      0.1692
    128  C          8.2310   19.6390   46.8570 C.2   143  ILE143      0.2592
    129  O          7.6080   18.9190   47.6430 O.2   143  ILE143     -0.2718
    130  CB         9.8660   18.0950   45.7390 C.3   143  ILE143      0.0266
    131  CG1       11.3310   17.8910   45.3590 C.3   143  ILE143      0.0019
    132  CG2        9.0050   18.1660   44.4640 C.3   143  ILE143      0.0020
    133  CD1       11.6810   16.4630   44.9500 C.3   143  ILE143      0.0001
    134  N          7.7070   20.6970   46.2420 N.am  144  ILE144     -0.1966
    135  CA         6.3080   21.0920   46.3970 C.3   144  ILE144      0.1727
    136  C          5.6590   20.8800   45.0360 C.2   144  ILE144      0.2616
    137  O          6.2250   21.2560   44.0190 O.2   144  ILE144     -0.2715
    138  CB         6.1630   22.5770   46.8380 C.3   144  ILE144      0.0290
    139  CG1        6.9620   22.8460   48.1120 C.3   144  ILE144      0.0022
    140  CG2        4.7010   22.9300   47.0870 C.3   144  ILE144      0.0023
    141  CD1        7.0980   24.3400   48.4640 C.3   144  ILE144      0.0001
    142  N          4.4990   20.2370   45.0100 N.am  145  HIS145     -0.1959
    143  CA         3.8400   19.9640   43.7360 C.3   145  HIS145      0.1787
    144  C          3.2630   21.2620   43.2070 C.2   145  HIS145      0.2620
    145  O          3.5910   21.6720   42.0970 O.2   145  HIS145     -0.2715
    146  CB         2.7480   18.9070   43.8760 C.3   145  HIS145      0.0785
    147  CG         2.2490   18.3780   42.5650 C.ar  145  HIS145      0.0821
    148  ND1        1.4550   19.1170   41.7180 N.ar  145  HIS145     -0.2267
    149  CD2        2.4520   17.1920   41.9470 C.ar  145  HIS145      0.1154
    150  CE1        1.1830   18.4060   40.6390 C.ar  145  HIS145      0.1986
    151  NE2        1.7750   17.2320   40.7550 N.ar  145  HIS145     -0.2212
    152  N          2.4300   21.9060   44.0300 N.am  146  ARG146     -0.1977
    153  CA         1.7690   23.1820   43.7230 C.3   146  ARG146      0.1597
    154  C          0.5750   23.0950   42.7790 C.2   146  ARG146      0.2287
    155  O         -0.1680   24.0630   42.6680 O.2   146  ARG146     -0.2864
    156  CB         2.7370   24.2270   43.1430 C.3   146  ARG146      0.0334
    157  CG         4.0270   24.4180   43.9060 C.3   146  ARG146      0.0492
    158  CD         4.9360   25.4090   43.1740 C.3   146  ARG146      0.2205
    159  NE         6.3410   25.0070   43.2600 N.pl3 146  ARG146     -0.0865
    160  CZ         6.9080   24.0580   42.5180 C.cat 146  ARG146      0.5346
    161  NH1        6.2140   23.3900   41.6020 N.pl3 146  ARG146      0.1354
    162  NH2        8.1910   23.7740   42.6940 N.pl3 146  ARG146      0.1354
    163  N          1.2420   10.0610   41.7730 N.3   163  ILE163     -0.1231
    164  CA         1.2390   11.4930   41.5690 C.3   163  ILE163      0.1692
    165  C          2.1470   11.8510   40.3850 C.2   163  ILE163      0.2592
    166  O          3.3140   11.4760   40.3480 O.2   163  ILE163     -0.2718
    167  CB         1.7700   12.2430   42.8320 C.3   163  ILE163      0.0266
    168  CG1        0.9620   11.8370   44.0930 C.3   163  ILE163      0.0019
    169  CG2        1.7500   13.7450   42.6030 C.3   163  ILE163      0.0020
    170  CD1        1.5090   12.3850   45.4000 C.3   163  ILE163      0.0001
    171  N          1.6160   12.6000   39.4300 N.am  164  LEU164     -0.1966
    172  CA         2.4480   13.1950   38.3820 C.3   164  LEU164      0.1728
    173  C          2.0990   14.6740   38.1260 C.2   164  LEU164      0.2616
    174  O          1.3500   15.2920   38.8880 O.2   164  LEU164     -0.2715
    175  CB         2.3840   12.3420   37.1060 C.3   164  LEU164      0.0311
    176  CG         1.0590   11.9780   36.4520 C.3   164  LEU164      0.0022
    177  CD1        0.3210   10.8900   37.2070 C.3   164  LEU164      0.0001
    178  CD2        0.2000   13.1980   36.2850 C.3   164  LEU164      0.0001
    179  N          2.6770   15.2460   37.0780 N.am  165  ASP165     -0.1957
    180  CA         2.3450   16.6010   36.6730 C.3   165  ASP165      0.1840
    181  C          2.3650   16.6660   35.1550 C.2   165  ASP165      0.2622
    182  O          3.4370   16.6390   34.5250 O.2   165  ASP165     -0.2715
    183  CB         3.3200   17.6050   37.2810 C.3   165  ASP165      0.1450
    184  CG         2.8810   19.0610   37.0760 C.2   165  ASP165      0.3671
    185  OD1        2.0180   19.3240   36.2130 O.co2 165  ASP165     -0.2456
    186  OD2        3.4030   19.9360   37.7920 O.co2 165  ASP165     -0.2456
    187  N          1.1690   16.7280   34.5780 N.am  166  PHE166     -0.1974
    188  CA         0.9990   16.7720   33.1270 C.3   166  PHE166      0.1639
    189  C          1.2330   18.1410   32.5110 C.2   166  PHE166      0.2290
    190  O          1.5700   18.2220   31.3340 O.2   166  PHE166     -0.2864
    191  CB        -0.4020   16.3130   32.7460 C.3   166  PHE166      0.0560
    192  CG        -0.5820   14.8400   32.7960 C.ar  166  PHE166     -0.0200
    193  CD1        0.1260   14.0250   31.9240 C.ar  166  PHE166     -0.0042
    194  CD2       -1.4710   14.2600   33.6860 C.ar  166  PHE166     -0.0042
    195  CE1       -0.0360   12.6520   31.9410 C.ar  166  PHE166     -0.0003
    196  CE2       -1.6460   12.8780   33.7130 C.ar  166  PHE166     -0.0003
    197  CZ        -0.9170   12.0710   32.8350 C.ar  166  PHE166     -0.0000
@<TRIPOS>BOND
     1     4     3    2
     2     3     2    1
     3     1     2    1
     4     2     5    1
     5    18    17    1
     6    17    19    1
     7    17    14    1
     8    16    15    2
     9     5     6    1
    10     5     7    1
    11    22    23    2
    12    22    21    1
    13    15    14    1
    14    15    20   am
    15    14    13    1
    16    21    20    1
    17    21    24    1
    18    13    10   am
    19    25    24    1
    20    25    26    1
    21   110   108    1
    22    96    97    1
    23    10     9    1
    24    10    11    2
    25     9     8    1
    26     9    12    1
    27    99    98    2
    28    26    27    1
    29   109   108    1
    30    98    97    1
    31    98   104   am
    32    97   100    1
    33   108   105    1
    34   104   105    1
    35   105   106    1
    36    27    28    1
    37   100   101    1
    38   101   102    1
    39   101   103    1
    40   114   113    2
    41   106   111   am
    42   106   107    2
    43   111   112    1
    44   190   189    2
    45    47    46   ar
    46   113   112    1
    47   193   195   ar
    48   193   192   ar
    49   195   197   ar
    50   112   115    1
    51   117   115    1
    52    46    48   ar
    53    46    45    1
    54   189   188    1
    55   191   192    1
    56   191   188    1
    57    95    93    1
    58   192   194   ar
    59   197   196   ar
    60   115   116    1
    61   188   187    1
    62    45    44    1
    63   194   196   ar
    64    44    41    1
    65    94    93    1
    66    93    92    1
    67    64    62    1
    68   182   181    2
    69   187   181   am
    70    90    89    1
    71    90    91    2
    72    41    42    1
    73    41    40    1
    74    42    43    2
    75    89    92    1
    76    89    88    1
    77    29    30    1
    78   181   180    1
    79    40    31   am
    80    87    85    1
    81    62    61    1
    82    62    63    1
    83    61    58    1
    84    38    37    1
    85   185   184   ar
    86    31    30    1
    87    31    32    2
    88   178   176    1
    89    30    33    1
    90    85    84    1
    91   176   175    1
    92   176   177    1
    93    33    34    1
    94   180   179    1
    95   180   183    1
    96   184   183    1
    97   184   186   ar
    98   179   173   am
    99   175   172    1
   100    37    39    1
   101    37    36    2
   102    58    59    1
   103    58    57    1
   104    84    86    1
   105    84    81    1
   106    34    35    1
   107    59    60    2
   108    35    36    1
   109    57    51   am
   110   173   172    1
   111   173   174    2
   112   172   171    1
   113    49    50    1
   114    81    82    1
   115    81    80    1
   116    82    83    2
   117    51    50    1
   118    51    52    2
   119    53    50    1
   120    53    54    1
   121   171   165   am
   122    56    54    1
   123    80    75   am
   124    54    55    1
   125   166   165    2
   126   165   164    1
   127   150   151   ar
   128   150   148   ar
   129   151   149   ar
   130    76    75    2
   131    75    74    1
   132    68    67    2
   133    70    69    1
   134    70    71    1
   135   164   163    1
   136   164   167    1
   137   161   160    1
   138   148   147   ar
   139    65    66    1
   140    69    66    1
   141   149   147   ar
   142   145   144    2
   143    67    66    1
   144    78    77    1
   145    74    77    1
   146    74    73    1
   147   160   162    1
   148   160   159    2
   149    71    72    1
   150   147   146    1
   151   169   167    1
   152   155   154    2
   153   154   153    1
   154   167   168    1
   155   156   153    1
   156   156   157    1
   157    77    79    1
   158   158   159    1
   159   158   157    1
   160   144   143    1
   161   144   152   am
   162   153   152    1
   163   143   146    1
   164   143   142    1
   165   137   136    2
   166   168   170    1
   167   132   130    1
   168   133   131    1
   169   142   136   am
   170   136   135    1
   171   131   130    1
   172   130   127    1
   173   124   122    1
   174   125   123    1
   175   134   135    1
   176   134   128   am
   177   135   138    1
   178   127   128    1
   179   127   126    1
   180   122   123    1
   181   122   119    1
   182   138   140    1
   183   138   139    1
   184   128   129    2
   185   119   118    1
   186   119   120    1
   187   139   141    1
   188   121   120    2
