@<TRIPOS>MOLECULE
tmp/1wbwA00.pdb
 145 136 0 0 0
SMALL
GASTEIGER

@<TRIPOS>ATOM
      1  N         23.8780   32.9960   23.0770 N.3    27  VAL27      -0.1231
      2  CA        24.7250   33.2920   24.2340 C.3    27  VAL27       0.1692
      3  C         25.0650   32.0080   24.9920 C.2    27  VAL27       0.2592
      4  O         24.5080   30.9310   24.7150 O.2    27  VAL27      -0.2718
      5  CB        24.0650   34.3620   25.1560 C.3    27  VAL27       0.0266
      6  CG1       23.3830   33.7320   26.3670 C.3    27  VAL27       0.0020
      7  CG2       25.0850   35.4260   25.5790 C.3    27  VAL27       0.0020
      8  N         25.9900   32.1360   25.9400 N.am   28  GLY28      -0.1957
      9  CA        26.6240   30.9800   26.5560 C.3    28  GLY28       0.1869
     10  C         27.5230   30.2980   25.5400 C.2    28  GLY28       0.2309
     11  O         28.6280   30.7700   25.2520 O.2    28  GLY28      -0.2863
     12  N         23.6610   26.6760   28.2000 N.3    32  TYR32      -0.1241
     13  CA        22.4480   26.9170   29.0130 C.3    32  TYR32       0.1605
     14  C         21.1660   26.4760   28.2900 C.2    32  TYR32       0.2264
     15  O         20.0620   26.7180   28.7780 O.2    32  TYR32      -0.2867
     16  CB        22.3430   28.4030   29.4050 C.3    32  TYR32       0.0534
     17  CG        23.5320   28.9220   30.1880 C.ar   32  TYR32      -0.0201
     18  CD1       23.6270   28.7090   31.5620 C.ar   32  TYR32      -0.0009
     19  CD2       24.5660   29.6160   29.5540 C.ar   32  TYR32      -0.0009
     20  CE1       24.7130   29.1770   32.2940 C.ar   32  TYR32       0.0417
     21  CE2       25.6660   30.0900   30.2770 C.ar   32  TYR32       0.0417
     22  CZ        25.7300   29.8640   31.6480 C.ar   32  TYR32       0.1957
     23  OH        26.8060   30.3160   32.3840 O.3    32  TYR32      -0.2866
     24  N         19.6700   29.6500   24.4470 N.3    35  VAL35      -0.1245
     25  CA        19.5770   30.9710   25.0710 C.3    35  VAL35       0.1561
     26  C         20.1120   32.0940   24.1550 C.2    35  VAL35       0.2260
     27  O         21.2020   32.0010   23.5870 O.2    35  VAL35      -0.2867
     28  CB        20.3090   31.0280   26.4310 C.3    35  VAL35       0.0252
     29  CG1       20.1060   32.3910   27.1040 C.3    35  VAL35       0.0019
     30  CG2       19.7960   29.9350   27.3380 C.3    35  VAL35       0.0019
     31  N         18.3960   37.6230   29.0650 N.3    48  ALA48      -0.1245
     32  CA        18.5580   36.3450   28.3790 C.3    48  ALA48       0.1562
     33  C         17.1630   35.7220   28.1750 C.2    48  ALA48       0.2260
     34  O         16.3230   35.7610   29.0720 O.2    48  ALA48      -0.2867
     35  CB        19.4770   35.4120   29.1470 C.3    48  ALA48       0.0290
     36  N         15.4550   32.2530   27.0010 N.3    50  LYS50      -0.1245
     37  CA        15.5680   30.8230   26.7290 C.3    50  LYS50       0.1561
     38  C         14.3220   30.2700   26.0450 C.2    50  LYS50       0.2260
     39  O         13.2290   30.3850   26.5560 O.2    50  LYS50      -0.2867
     40  CB        15.8250   30.0210   28.0180 C.3    50  LYS50       0.0271
     41  CG        15.8420   28.5040   27.7650 C.3    50  LYS50       0.0035
     42  CD        16.6000   27.6830   28.7830 C.3    50  LYS50       0.0206
     43  CE        15.8570   27.5580   30.0970 C.3    50  LYS50       0.1093
     44  NZ        16.0320   26.2080   30.7100 N.3    50  LYS50      -0.1314
     45  N          9.8570   23.6680   35.7210 N.3    68  GLU68      -0.1245
     46  CA        10.7750   24.7890   35.6100 C.3    68  GLU68       0.1567
     47  C         10.0240   26.0890   35.6410 C.2    68  GLU68       0.2260
     48  O         10.4130   27.0070   36.3350 O.2    68  GLU68      -0.2867
     49  CB        11.6140   24.7220   34.3350 C.3    68  GLU68       0.0388
     50  CG        12.5620   25.9260   34.2280 C.3    68  GLU68       0.1160
     51  CD        13.5250   25.8510   33.0690 C.2    68  GLU68       0.3649
     52  OE1       13.2220   25.0900   32.1380 O.co2  68  GLU68      -0.2457
     53  OE2       14.5690   26.5640   33.0810 O.co2  68  GLU68      -0.2457
     54  N         10.3650   29.0010   38.5230 N.3    72  LEU72      -0.1245
     55  CA        10.7750   30.3420   38.1280 C.3    72  LEU72       0.1561
     56  C          9.6970   31.3990   38.4060 C.2    72  LEU72       0.2260
     57  O         10.0260   32.5100   38.8000 O.2    72  LEU72      -0.2867
     58  CB        11.1830   30.3450   36.6590 C.3    72  LEU72       0.0270
     59  CG        12.6570   30.1490   36.2530 C.3    72  LEU72       0.0019
     60  CD1       13.4420   29.3370   37.2470 C.3    72  LEU72       0.0001
     61  CD2       12.7280   29.5270   34.8520 C.3    72  LEU72       0.0001
     62  N         17.4270   34.0470   40.6350 N.3    81  ILE81      -0.1245
     63  CA        16.8530   34.3160   39.3310 C.3    81  ILE81       0.1561
     64  C         15.3670   34.6610   39.5060 C.2    81  ILE81       0.2260
     65  O         14.6320   33.9860   40.2480 O.2    81  ILE81      -0.2867
     66  CB        17.0260   33.0950   38.3800 C.3    81  ILE81       0.0252
     67  CG1       16.6330   33.4530   36.9360 C.3    81  ILE81       0.0019
     68  CG2       16.2490   31.8960   38.8820 C.3    81  ILE81       0.0019
     69  CD1       16.4220   32.2650   35.9620 C.3    81  ILE81       0.0001
     70  N         11.7850   35.7210   37.1660 N.3    83  LEU83      -0.1245
     71  CA        11.2400   35.5460   35.8310 C.3    83  LEU83       0.1561
     72  C         10.7680   36.9100   35.4090 C.2    83  LEU83       0.2260
     73  O          9.8650   37.4690   36.0320 O.2    83  LEU83      -0.2867
     74  CB        10.0830   34.5430   35.8490 C.3    83  LEU83       0.0270
     75  CG         9.9930   33.4660   34.7680 C.3    83  LEU83       0.0019
     76  CD1        8.5430   33.1730   34.4770 C.3    83  LEU83       0.0001
     77  CD2       10.7430   33.7950   33.4970 C.3    83  LEU83       0.0001
     78  N         11.3880   31.8010   28.0460 N.3   101  LEU101     -0.1231
     79  CA        11.5120   32.3620   29.3970 C.3   101  LEU101      0.1693
     80  C         12.5200   33.4900   29.3220 C.2   101  LEU101      0.2592
     81  O         13.4600   33.4160   28.5320 O.2   101  LEU101     -0.2718
     82  CB        11.9720   31.2720   30.4040 C.3   101  LEU101      0.0284
     83  CG        11.1400   29.9810   30.4350 C.3   101  LEU101      0.0019
     84  CD1       11.8940   28.8820   31.1490 C.3   101  LEU101      0.0001
     85  CD2        9.8010   30.2130   31.0980 C.3   101  LEU101      0.0001
     86  N         12.3200   34.5200   30.1320 N.am  102  VAL102     -0.1966
     87  CA        13.1490   35.7160   30.0700 C.3   102  VAL102      0.1727
     88  C         13.6090   36.0830   31.4860 C.2   102  VAL102      0.2617
     89  O         12.7930   36.1670   32.4100 O.2   102  VAL102     -0.2715
     90  CB        12.3920   36.8940   29.4120 C.3   102  VAL102      0.0290
     91  CG1       13.2680   38.1490   29.3390 C.3   102  VAL102      0.0023
     92  CG2       11.8780   36.5150   27.9970 C.3   102  VAL102      0.0023
     93  N         14.9260   36.2620   31.6470 N.am  103  THR103     -0.1937
     94  CA        15.4740   36.8040   32.8770 C.3   103  THR103      0.2028
     95  C         16.5990   37.8010   32.5660 C.2   103  THR103      0.2642
     96  O         16.9350   38.0120   31.3940 O.2   103  THR103     -0.2714
     97  CB        15.9390   35.6780   33.8530 C.3   103  THR103      0.1808
     98  OG1       16.0660   36.2250   35.1600 O.3   103  THR103     -0.2208
     99  CG2       17.2600   35.0440   33.4160 C.3   103  THR103      0.0379
    100  N         17.1520   38.4160   33.6120 N.am  104  HIS104     -0.1959
    101  CA        18.2750   39.3580   33.4770 C.3   104  HIS104      0.1787
    102  C         19.4970   38.6840   32.8430 C.2   104  HIS104      0.2620
    103  O         19.8030   37.5400   33.1430 O.2   104  HIS104     -0.2715
    104  CB        18.6740   39.9110   34.8500 C.3   104  HIS104      0.0785
    105  CG        17.5630   40.6220   35.5660 C.ar  104  HIS104      0.0821
    106  ND1       17.4260   41.9980   35.5590 N.ar  104  HIS104     -0.2267
    107  CD2       16.5260   40.1450   36.2980 C.ar  104  HIS104      0.1154
    108  CE1       16.3640   42.3330   36.2730 C.ar  104  HIS104      0.1986
    109  NE2       15.8010   41.2280   36.7330 N.ar  104  HIS104     -0.2212
    110  N         20.1930   39.3960   31.9670 N.am  105  LEU105     -0.1963
    111  CA        21.4040   38.8810   31.3230 C.3   105  LEU105      0.1728
    112  C         22.4930   38.7980   32.3560 C.2   105  LEU105      0.2619
    113  O         22.8130   39.7820   32.9870 O.2   105  LEU105     -0.2715
    114  CB        21.8360   39.7840   30.1500 C.3   105  LEU105      0.0311
    115  CG        22.8930   39.2480   29.1700 C.3   105  LEU105      0.0022
    116  CD1       22.6330   37.7940   28.7080 C.3   105  LEU105      0.0001
    117  CD2       23.0260   40.2120   27.9640 C.3   105  LEU105      0.0001
    118  N         23.0580   37.6090   32.5190 N.am  106  MET106     -0.1917
    119  CA        24.0490   37.3440   33.5730 C.3   106  MET106      0.1952
    120  C         25.3640   38.0510   33.2450 C.2   106  MET106      0.2659
    121  O         25.7990   38.9230   34.0120 O.2   106  MET106     -0.2711
    122  CB        24.2200   35.8170   33.7990 C.2   106  MET106      0.0110
    123  CG        25.6330   35.3260   34.1500 C.2   106  MET106      0.0285
    124  SD        25.7390   33.6200   34.7880 S.3   106  MET106     -0.1125
    125  CE        25.0900   32.6610   33.4320 C.3   106  MET106      0.0742
    126  N         26.0010   37.7390   32.1240 N.am  107  GLY107     -0.1952
    127  CA        27.3090   38.3720   31.8580 C.3   107  GLY107      0.1869
    128  C         28.5160   37.6560   32.4770 C.2   107  GLY107      0.2309
    129  O         29.3420   37.1140   31.7360 O.2   107  GLY107     -0.2863
    130  N         21.1100   31.0000   40.0430 N.3   164  LEU164     -0.1231
    131  CA        20.3730   30.5940   38.8640 C.3   164  LEU164      0.1693
    132  C         20.3840   29.0860   38.6460 C.2   164  LEU164      0.2592
    133  O         21.0260   28.3090   39.3600 O.2   164  LEU164     -0.2718
    134  CB        20.9740   31.1760   37.6000 C.3   164  LEU164      0.0284
    135  CG        21.4130   32.6080   37.4600 C.3   164  LEU164      0.0019
    136  CD1       22.8590   32.6490   37.6340 C.3   164  LEU164      0.0001
    137  CD2       21.0680   33.0920   36.0460 C.3   164  LEU164      0.0001
    138  N         19.6440   28.6920   37.6250 N.am  165  ASP165     -0.1974
    139  CA        19.7920   27.3930   37.0520 C.3   165  ASP165      0.1709
    140  C         19.6800   26.3610   38.1600 C.2   165  ASP165      0.2293
    141  O         20.6610   25.7880   38.6090 O.2   165  ASP165     -0.2864
    142  CB        21.1230   27.3080   36.3020 C.3   165  ASP165      0.1436
    143  CG        21.0420   26.4190   35.0980 C.2   165  ASP165      0.3671
    144  OD1       20.2320   25.4540   35.1190 O.co2 165  ASP165     -0.2456
    145  OD2       21.7700   26.6960   34.1140 O.co2 165  ASP165     -0.2456
@<TRIPOS>BOND
     1     1     2    1
     2    27    26    2
     3    26    25    1
     4     2     3    1
     5     2     5    1
     6    24    25    1
     7     4     3    2
     8     3     8   am
     9    25    28    1
    10     5     7    1
    11     5     6    1
    12    11    10    2
    13    10     9    1
    14     8     9    1
    15    38    39    2
    16    38    37    1
    17    28    29    1
    18    28    30    1
    19    37    36    1
    20    37    40    1
    21    41    40    1
    22    41    42    1
    23   117   115    1
    24    92    90    1
    25    78    79    1
    26    33    32    1
    27    33    34    2
    28    12    13    1
    29    14    15    2
    30    14    13    1
    31    32    31    1
    32    32    35    1
    33    81    80    2
    34   116   115    1
    35    42    43    1
    36    13    16    1
    37   115   114    1
    38    80    79    1
    39    80    86   am
    40    91    90    1
    41    79    82    1
    42    16    17    1
    43    90    87    1
    44    19    17   ar
    45    19    21   ar
    46    87    86    1
    47    87    88    1
    48    43    44    1
    49   114   111    1
    50    17    18   ar
    51    21    22   ar
    52    82    83    1
    53    83    85    1
    54    83    84    1
    55   111   110    1
    56   111   112    1
    57    96    95    2
    58    88    93   am
    59    88    89    2
    60    18    20   ar
    61    93    94    1
    62    22    20   ar
    63    22    23    1
    64   129   128    2
    65   127   126    1
    66   127   128    1
    67   110   102   am
    68   126   120   am
    69    52    51   ar
    70   112   118   am
    71   112   113    2
    72   118   119    1
    73    95    94    1
    74    95   100   am
    75   102   103    2
    76   102   101    1
    77    94    97    1
    78    51    53   ar
    79    51    50    1
    80   120   119    1
    81   120   121    2
    82    99    97    1
    83   125   124    1
    84   101   100    1
    85   101   104    1
    86    77    75    1
    87   119   122    1
    88   122   123    2
    89    97    98    1
    90   145   143   ar
    91   123   124    1
    92    50    49    1
    93    49    46    1
    94    76    75    1
    95    75    74    1
    96   104   105    1
    97    61    59    1
    98   143   144   ar
    99   143   142    1
   100    72    71    1
   101    72    73    2
   102   106   105   ar
   103   106   108   ar
   104   105   107   ar
   105    46    47    1
   106    46    45    1
   107    47    48    2
   108    71    74    1
   109    71    70    1
   110    69    67    1
   111   137   135    1
   112    59    58    1
   113    59    60    1
   114   108   109   ar
   115   107   109   ar
   116   142   139    1
   117    58    55    1
   118    67    66    1
   119   139   138    1
   120   139   140    1
   121   135   134    1
   122   135   136    1
   123   134   131    1
   124   138   132   am
   125    55    56    1
   126    55    54    1
   127   140   141    2
   128    66    68    1
   129    66    63    1
   130    56    57    2
   131   132   131    1
   132   132   133    2
   133   131   130    1
   134    63    64    1
   135    63    62    1
   136    64    65    2
