@<TRIPOS>MOLECULE
tmp/1wc1C00.pdb
 103 95 0 0 0
SMALL
GASTEIGER

@<TRIPOS>ATOM
      1  N         19.3680   35.7050   88.1320 N.3    12  PHE12      -0.1241
      2  CA        19.7000   36.0160   89.5170 C.3    12  PHE12       0.1605
      3  C         18.3840   36.0620   90.2890 C.2    12  PHE12       0.2264
      4  O         17.4310   36.7010   89.8460 O.2    12  PHE12      -0.2867
      5  CB        20.3680   37.3990   89.6630 C.3    12  PHE12       0.0534
      6  CG        21.8200   37.4360   89.2810 C.ar   12  PHE12      -0.0203
      7  CD1       22.2120   37.8880   88.0240 C.ar   12  PHE12      -0.0042
      8  CD2       22.8000   37.0350   90.1870 C.ar   12  PHE12      -0.0042
      9  CE1       23.5670   37.9450   87.6700 C.ar   12  PHE12      -0.0003
     10  CE2       24.1570   37.0870   89.8430 C.ar   12  PHE12      -0.0003
     11  CZ        24.5390   37.5430   88.5820 C.ar   12  PHE12      -0.0000
     12  N         26.7040   29.9220   91.2740 N.3    54  LYS54      -0.1245
     13  CA        27.0970   30.0840   92.6650 C.3    54  LYS54       0.1561
     14  C         25.9630   30.6650   93.4930 C.2    54  LYS54       0.2260
     15  O         24.9000   31.0030   92.9740 O.2    54  LYS54      -0.2867
     16  CB        28.2960   31.0380   92.7570 C.3    54  LYS54       0.0271
     17  CG        27.9640   32.4630   92.3220 C.3    54  LYS54       0.0035
     18  CD        29.1180   33.4370   92.5710 C.3    54  LYS54       0.0206
     19  CE        30.3270   33.1420   91.6870 C.3    54  LYS54       0.1093
     20  NZ        30.0760   33.4090   90.2350 N.3    54  LYS54      -0.1314
     21  N         25.3100   33.7240   96.3290 N.3    56  VAL56      -0.1245
     22  CA        25.9270   34.9520   96.8120 C.3    56  VAL56       0.1561
     23  C         25.0620   35.4080   97.9740 C.2    56  VAL56       0.2260
     24  O         24.1540   36.2230   97.8080 O.2    56  VAL56      -0.2867
     25  CB        25.9640   36.0460   95.7200 C.3    56  VAL56       0.0252
     26  CG1       26.5220   37.3320   96.3030 C.3    56  VAL56       0.0019
     27  CG2       26.8370   35.5870   94.5540 C.3    56  VAL56       0.0019
     28  N         22.7080   32.3470   91.4390 N.3    61  MET61      -0.1245
     29  CA        23.0650   32.7550   90.0910 C.3    61  MET61       0.1570
     30  C         23.0750   31.4950   89.2380 C.2    61  MET61       0.2261
     31  O         23.8530   30.5690   89.4880 O.2    61  MET61      -0.2867
     32  CB        24.4500   33.4060   90.0960 C.3    61  MET61       0.0387
     33  CG        24.9640   33.8250   88.7270 C.3    61  MET61       0.0595
     34  SD        26.6750   34.4430   88.8110 S.3    61  MET61      -0.1393
     35  CE        27.0320   34.6260   87.0630 C.3    61  MET61       0.0692
     36  N         32.4240   30.3400   85.7190 N.3   133  THR133     -0.1203
     37  CA        31.4510   31.4210   85.8140 C.3   133  THR133      0.1994
     38  C         31.4030   32.2590   84.5430 C.2   133  THR133      0.2618
     39  O         32.0560   31.9400   83.5530 O.2   133  THR133     -0.2717
     40  CB        31.7620   32.3350   87.0220 C.3   133  THR133      0.1784
     41  OG1       30.6950   33.2740   87.1970 O.3   133  THR133     -0.2211
     42  CG2       33.0740   33.0950   86.8040 C.3   133  THR133      0.0376
     43  N         30.6190   33.3300   84.5770 N.am  134  ALA134     -0.1965
     44  CA        30.4880   34.2110   83.4280 C.3   134  ALA134      0.1728
     45  C         30.9030   35.6180   83.8370 C.2   134  ALA134      0.2616
     46  O         30.6040   36.0630   84.9480 O.2   134  ALA134     -0.2715
     47  CB        29.0530   34.2090   82.9310 C.3   134  ALA134      0.0334
     48  N         31.5720   36.3180   82.9280 N.am  135  ILE135     -0.1963
     49  CA        32.0580   37.6670   83.1930 C.3   135  ILE135      0.1727
     50  C         31.6870   38.6310   82.0710 C.2   135  ILE135      0.2616
     51  O         31.7780   38.2860   80.8940 O.2   135  ILE135     -0.2715
     52  CB        33.5980   37.6510   83.3460 C.3   135  ILE135      0.0290
     53  CG1       33.9870   36.8210   84.5710 C.3   135  ILE135      0.0022
     54  CG2       34.1420   39.0720   83.4220 C.3   135  ILE135      0.0023
     55  CD1       33.5080   37.3880   85.8950 C.3   135  ILE135      0.0001
     56  N         31.2760   39.8420   82.4390 N.am  136  GLY136     -0.1955
     57  CA        30.9160   40.8300   81.4390 C.3   136  GLY136      0.1869
     58  C         29.6890   41.6470   81.7950 C.2   136  GLY136      0.2309
     59  O         28.9350   41.2810   82.6970 O.2   136  GLY136     -0.2863
     60  N         26.2630   40.0570   82.6050 N.3   139  VAL139     -0.1231
     61  CA        26.0070   39.5220   83.9350 C.3   139  VAL139      0.1692
     62  C         25.4910   40.6380   84.8330 C.2   139  VAL139      0.2592
     63  O         24.5070   40.4650   85.5500 O.2   139  VAL139     -0.2718
     64  CB        27.2750   38.9440   84.5730 C.3   139  VAL139      0.0266
     65  CG1       26.9130   38.2450   85.8560 C.3   139  VAL139      0.0020
     66  CG2       27.9650   37.9860   83.6110 C.3   139  VAL139      0.0020
     67  N         26.1660   41.7820   84.7860 N.am  140  ASN140     -0.1974
     68  CA        25.7850   42.9410   85.5850 C.3   140  ASN140      0.1688
     69  C         24.3270   43.3000   85.3560 C.2   140  ASN140      0.2292
     70  O         23.5780   43.5460   86.3030 O.2   140  ASN140     -0.2864
     71  CB        26.6630   44.1410   85.2220 C.3   140  ASN140      0.1181
     72  CG        26.0610   45.4590   85.6650 C.2   140  ASN140      0.2629
     73  OD1       25.8940   45.7150   86.8600 O.2   140  ASN140     -0.2716
     74  ND2       25.7230   46.3040   84.6990 N.am  140  ASN140     -0.0877
     75  N         21.9710   41.0730   87.1130 N.3   143  ALA143     -0.1231
     76  CA        22.0050   41.3750   88.5420 C.3   143  ALA143      0.1694
     77  C         21.2630   42.6680   88.8840 C.2   143  ALA143      0.2591
     78  O         20.5850   42.7350   89.9050 O.2   143  ALA143     -0.2718
     79  CB        23.4450   41.4650   89.0250 C.3   143  ALA143      0.0304
     80  N         21.3920   43.6910   88.0380 N.am  144  ARG144     -0.1980
     81  CA        20.7220   44.9700   88.2920 C.3   144  ARG144      0.1597
     82  C         19.2110   44.8830   88.1120 C.2   144  ARG144      0.2287
     83  O         18.4680   45.5970   88.7810 O.2   144  ARG144     -0.2864
     84  CB        21.2730   46.0730   87.3800 C.3   144  ARG144      0.0334
     85  CG        22.7630   46.3170   87.5100 C.3   144  ARG144      0.0492
     86  CD        23.2020   46.5140   88.9560 C.3   144  ARG144      0.2205
     87  NE        24.6490   46.6960   89.0440 N.pl3 144  ARG144     -0.0865
     88  CZ        25.3250   46.8030   90.1820 C.cat 144  ARG144      0.5346
     89  NH1       24.6870   46.7470   91.3440 N.pl3 144  ARG144      0.1354
     90  NH2       26.6420   46.9620   90.1600 N.pl3 144  ARG144      0.1354
     91  N         17.8270   43.4500   91.3310 N.3   147  GLU147     -0.1245
     92  CA        17.7770   44.4280   92.4090 C.3   147  GLU147      0.1567
     93  C         16.7430   45.5100   92.1340 C.2   147  GLU147      0.2260
     94  O         16.1590   46.0720   93.0590 O.2   147  GLU147     -0.2867
     95  CB        19.1540   45.0680   92.5970 C.3   147  GLU147      0.0388
     96  CG        20.2680   44.0560   92.7830 C.3   147  GLU147      0.1160
     97  CD        21.6280   44.6960   92.9460 C.2   147  GLU147      0.3649
     98  OE1       21.9960   45.5430   92.1040 O.co2 147  GLU147     -0.2457
     99  OE2       22.3350   44.3420   93.9150 O.co2 147  GLU147     -0.2457
    100  N         26.2030   50.9530   86.1260 N.3   179  GLY179     -0.1225
    101  CA        27.2290   50.2700   85.3600 C.3   179  GLY179      0.1811
    102  C         27.0710   50.4480   83.8640 C.2   179  GLY179      0.2280
    103  O         28.0420   50.3580   83.1140 O.2   179  GLY179     -0.2866
@<TRIPOS>BOND
     1    51    50    2
     2    57    58    1
     3    57    56    1
     4    58    59    2
     5    50    56   am
     6    50    49    1
     7    60    61    1
     8    48    49    1
     9    48    45   am
    10    47    44    1
    11   103   102    2
    12    49    52    1
    13    52    54    1
    14    52    53    1
    15    44    45    1
    16    44    43    1
    17    39    38    2
    18    66    64    1
    19    45    46    2
    20   102   101    1
    21    61    64    1
    22    61    62    1
    23    38    43   am
    24    38    37    1
    25    53    55    1
    26    64    65    1
    27    74    72   am
    28    67    62   am
    29    67    68    1
    30    62    63    2
    31    71    68    1
    32    71    72    1
    33    69    68    1
    34    69    70    2
    35   101   100    1
    36    72    73    2
    37    36    37    1
    38    37    40    1
    39    42    40    1
    40    40    41    1
    41    35    34    1
    42    75    76    1
    43    84    85    1
    44    84    81    1
    45    85    86    1
    46     9     7   ar
    47     9    11   ar
    48     7     6   ar
    49    80    81    1
    50    80    77   am
    51    82    81    1
    52    82    83    2
    53     1     2    1
    54    76    77    1
    55    76    79    1
    56    11    10   ar
    57    33    34    1
    58    33    32    1
    59    77    78    2
    60    86    87    1
    61    87    88    2
    62    30    31    2
    63    30    29    1
    64     6     5    1
    65     6     8   ar
    66     2     5    1
    67     2     3    1
    68    10     8   ar
    69     4     3    2
    70    29    32    1
    71    29    28    1
    72    90    88    1
    73    88    89    1
    74    20    19    1
    75    12    13    1
    76    91    92    1
    77    19    18    1
    78    98    97   ar
    79    93    92    1
    80    93    94    2
    81    17    18    1
    82    17    16    1
    83    92    95    1
    84    95    96    1
    85    13    16    1
    86    13    14    1
    87    96    97    1
    88    97    99   ar
    89    15    14    2
    90    27    25    1
    91    25    26    1
    92    25    22    1
    93    21    22    1
    94    22    23    1
    95    24    23    2
