@<TRIPOS>MOLECULE
tmp/1wc1C01.pdb
 99 96 0 0 0
SMALL
GASTEIGER

@<TRIPOS>ATOM
      1  N         16.9690   36.6300   94.3770 N.3    14  ASP14      -0.1225
      2  CA        17.4660   37.1050   95.6650 C.3    14  ASP14       0.1805
      3  C         16.3480   37.3700   96.6740 C.2    14  ASP14       0.2597
      4  O         15.3780   38.0650   96.3670 O.2    14  ASP14      -0.2718
      5  CB        18.2810   38.3840   95.4130 C.3    14  ASP14       0.1424
      6  CG        18.8670   38.9790   96.6740 C.2    14  ASP14       0.3668
      7  OD1       19.9870   39.5320   96.5950 O.co2  14  ASP14      -0.2456
      8  OD2       18.2150   38.9130   97.7330 O.co2  14  ASP14      -0.2456
      9  N         16.5050   36.8220   97.8790 N.am   15  ILE15      -0.1980
     10  CA        15.5170   36.9830   98.9470 C.3    15  ILE15       0.1595
     11  C         15.3840   38.4320   99.3980 C.2    15  ILE15       0.2287
     12  O         16.3800   39.0990   99.6720 O.2    15  ILE15      -0.2864
     13  CB        15.8840   36.1440  100.1880 C.3    15  ILE15       0.0276
     14  CG1       15.8750   34.6570   99.8360 C.3    15  ILE15       0.0022
     15  CG2       14.9020   36.4350  101.3200 C.3    15  ILE15       0.0022
     16  CD1       16.2510   33.7480  100.9860 C.3    15  ILE15       0.0001
     17  N         14.4190   41.4880  101.9280 N.3    17  GLY17      -0.1210
     18  CA        14.4980   41.7040  103.3630 C.3    17  GLY17       0.1956
     19  C         15.1440   40.5710  104.1370 C.2    17  GLY17       0.2612
     20  O         14.6180   40.1340  105.1610 O.2    17  GLY17      -0.2717
     21  N         16.2840   40.0920  103.6530 N.am   18  PHE18      -0.1962
     22  CA        16.9890   39.0100  104.3250 C.3    18  PHE18       0.1771
     23  C         17.7910   39.5730  105.4930 C.2    18  PHE18       0.2620
     24  O         18.1730   38.8450  106.4090 O.2    18  PHE18      -0.2715
     25  CB        17.9330   38.2960  103.3550 C.3    18  PHE18       0.0574
     26  CG        18.5580   37.0580  103.9270 C.ar   18  PHE18      -0.0200
     27  CD1       17.7940   35.9140  104.1410 C.ar   18  PHE18      -0.0042
     28  CD2       19.9010   37.0440  104.2850 C.ar   18  PHE18      -0.0042
     29  CE1       18.3580   34.7730  104.7050 C.ar   18  PHE18      -0.0003
     30  CE2       20.4780   35.9090  104.8510 C.ar   18  PHE18      -0.0003
     31  CZ        19.7040   34.7710  105.0620 C.ar   18  PHE18      -0.0000
     32  N         18.0380   40.8780  105.4480 N.am   19  THR19      -0.1937
     33  CA        18.7970   41.5620  106.4880 C.3    19  THR19       0.2028
     34  C         18.0200   41.6800  107.7950 C.2    19  THR19       0.2642
     35  O         18.5050   41.2770  108.8530 O.2    19  THR19      -0.2714
     36  CB        19.2090   42.9830  106.0280 C.3    19  THR19       0.1808
     37  OG1       20.1370   42.8860  104.9400 O.3    19  THR19      -0.2208
     38  CG2       19.8520   43.7570  107.1730 C.3    19  THR19       0.0379
     39  N         16.8120   42.2290  107.7190 N.am   20  ARG20      -0.1977
     40  CA        15.9890   42.4090  108.9080 C.3    20  ARG20       0.1597
     41  C         15.2680   41.1320  109.3320 C.2    20  ARG20       0.2287
     42  O         14.2480   41.1810  110.0220 O.2    20  ARG20      -0.2864
     43  CB        14.9780   43.5370  108.6810 C.3    20  ARG20       0.0334
     44  CG        15.6110   44.8190  108.1600 C.3    20  ARG20       0.0492
     45  CD        14.6830   46.0180  108.3020 C.3    20  ARG20       0.2205
     46  NE        14.5700   46.4590  109.6910 N.pl3  20  ARG20      -0.0865
     47  CZ        13.8980   47.5380  110.0820 C.cat  20  ARG20       0.5346
     48  NH1       13.2710   48.2940  109.1910 N.pl3  20  ARG20       0.1354
     49  NH2       13.8580   47.8670  111.3670 N.pl3  20  ARG20       0.1354
     50  N         26.2100   30.7690   94.7930 N.3    55  PHE55      -0.1227
     51  CA        25.2660   31.3760   95.7200 C.3    55  PHE55       0.1736
     52  C         26.0150   32.6100   96.1880 C.2    55  PHE55       0.2595
     53  O         27.2290   32.5550   96.3820 O.2    55  PHE55      -0.2718
     54  CB        25.0030   30.4750   96.9280 C.3    55  PHE55       0.0547
     55  CG        24.4740   29.1240   96.5690 C.ar   55  PHE55      -0.0202
     56  CD1       25.2730   27.9940   96.7020 C.ar   55  PHE55      -0.0042
     57  CD2       23.1870   28.9840   96.0650 C.ar   55  PHE55      -0.0042
     58  CE1       24.7960   26.7340   96.3310 C.ar   55  PHE55      -0.0003
     59  CE2       22.7010   27.7300   95.6920 C.ar   55  PHE55      -0.0003
     60  CZ        23.5100   26.6050   95.8260 C.ar   55  PHE55      -0.0000
     61  N         25.3100   33.7240   96.3290 N.am   56  VAL56      -0.1966
     62  CA        25.9270   34.9520   96.8120 C.3    56  VAL56       0.1727
     63  C         25.0620   35.4080   97.9740 C.2    56  VAL56       0.2617
     64  O         24.1540   36.2230   97.8080 O.2    56  VAL56      -0.2715
     65  CB        25.9640   36.0460   95.7200 C.3    56  VAL56       0.0290
     66  CG1       26.5220   37.3320   96.3030 C.3    56  VAL56       0.0023
     67  CG2       26.8370   35.5870   94.5540 C.3    56  VAL56       0.0023
     68  N         25.3400   34.8590   99.1500 N.am   57  GLY57      -0.1940
     69  CA        24.5510   35.1950  100.3170 C.3    57  GLY57       0.2014
     70  C         23.1510   34.6220  100.1690 C.2    57  GLY57       0.2638
     71  O         22.9680   33.4030  100.1520 O.2    57  GLY57      -0.2714
     72  N         22.1650   35.5030  100.0370 N.am   58  ASP58      -0.1971
     73  CA        20.7700   35.0970   99.9020 C.3    58  ASP58       0.1709
     74  C         20.3260   35.0550   98.4410 C.2    58  ASP58       0.2293
     75  O         19.1310   35.0980   98.1550 O.2    58  ASP58      -0.2864
     76  CB        19.8730   36.0780  100.6700 C.3    58  ASP58       0.1436
     77  CG        19.8760   37.4760  100.0590 C.2    58  ASP58       0.3671
     78  OD1       20.9100   37.8780   99.4800 O.co2  58  ASP58      -0.2456
     79  OD2       18.8510   38.1810  100.1670 O.co2  58  ASP58      -0.2456
     80  N         13.2250   38.3910   94.5010 N.3   111  ARG111     -0.1245
     81  CA        13.2190   39.1560   93.2700 C.3   111  ARG111      0.1563
     82  C         14.0210   38.3330   92.2790 C.2   111  ARG111      0.2260
     83  O         14.9310   37.6020   92.6720 O.2   111  ARG111     -0.2867
     84  CB        13.8930   40.5110   93.4860 C.3   111  ARG111      0.0307
     85  CG        13.1810   41.4210   94.4730 C.3   111  ARG111      0.0489
     86  CD        13.8330   42.7990   94.4820 C.3   111  ARG111      0.2205
     87  NE        13.0760   43.7740   95.2630 N.pl3 111  ARG111     -0.0865
     88  CZ        13.2360   43.9850   96.5650 C.cat 111  ARG111      0.5346
     89  NH1       14.1350   43.2930   97.2520 N.pl3 111  ARG111      0.1354
     90  NH2       12.4880   44.8900   97.1820 N.pl3 111  ARG111      0.1354
     91  N         17.8270   43.4500   91.3310 N.3   147  GLU147     -0.1245
     92  CA        17.7770   44.4280   92.4090 C.3   147  GLU147      0.1567
     93  C         16.7430   45.5100   92.1340 C.2   147  GLU147      0.2260
     94  O         16.1590   46.0720   93.0590 O.2   147  GLU147     -0.2867
     95  CB        19.1540   45.0680   92.5970 C.3   147  GLU147      0.0388
     96  CG        20.2680   44.0560   92.7830 C.3   147  GLU147      0.1160
     97  CD        21.6280   44.6960   92.9460 C.2   147  GLU147      0.3649
     98  OE1       21.9960   45.5430   92.1040 O.co2 147  GLU147     -0.2457
     99  OE2       22.3350   44.3420   93.9150 O.co2 147  GLU147     -0.2457
@<TRIPOS>BOND
     1    91    92    1
     2    98    97   ar
     3    93    92    1
     4    93    94    2
     5    82    83    2
     6    82    81    1
     7    92    95    1
     8    95    96    1
     9    96    97    1
    10    97    99   ar
    11    81    84    1
    12    81    80    1
    13    84    85    1
    14     1     2    1
    15    85    86    1
    16    86    87    1
    17    67    65    1
    18    50    51    1
    19    87    88    2
    20     5     2    1
    21     5     6    1
    22     2     3    1
    23    59    60   ar
    24    59    57   ar
    25    65    66    1
    26    65    62    1
    27    51    52    1
    28    51    54    1
    29    60    58   ar
    30    57    55   ar
    31    52    61   am
    32    52    53    2
    33    61    62    1
    34    58    56   ar
    35     4     3    2
    36    88    90    1
    37    88    89    1
    38    55    56   ar
    39    55    54    1
    40     7     6   ar
    41     3     9   am
    42     6     8   ar
    43    62    63    1
    44    64    63    2
    45     9    10    1
    46    63    68   am
    47    75    74    2
    48    74    73    1
    49    10    11    1
    50    10    13    1
    51    68    69    1
    52    11    12    2
    53    78    77   ar
    54    14    13    1
    55    14    16    1
    56    73    72    1
    57    73    76    1
    58    72    70   am
    59    77    79   ar
    60    77    76    1
    61    71    70    2
    62    70    69    1
    63    13    15    1
    64    17    18    1
    65    25    26    1
    66    25    22    1
    67    18    19    1
    68    21    19   am
    69    21    22    1
    70    26    27   ar
    71    26    28   ar
    72    19    20    2
    73    27    29   ar
    74    28    30   ar
    75    22    23    1
    76    29    31   ar
    77    30    31   ar
    78    37    36    1
    79    32    23   am
    80    32    33    1
    81    23    24    2
    82    36    33    1
    83    36    38    1
    84    33    34    1
    85    39    34   am
    86    39    40    1
    87    34    35    2
    88    44    45    1
    89    44    43    1
    90    45    46    1
    91    43    40    1
    92    40    41    1
    93    48    47    1
    94    41    42    2
    95    46    47    2
    96    47    49    1
