@<TRIPOS>MOLECULE
tmp/1wc4A01.pdb
 108 100 0 0 0
SMALL
GASTEIGER

@<TRIPOS>ATOM
      1  N         27.6220    0.5750   47.3200 N.3    14  PHE14      -0.1241
      2  CA        26.7510    0.8800   48.4510 C.3    14  PHE14       0.1605
      3  C         25.4470    1.4220   47.8690 C.2    14  PHE14       0.2264
      4  O         25.4810    2.2330   46.9630 O.2    14  PHE14      -0.2867
      5  CB        27.3840    1.9520   49.3570 C.3    14  PHE14       0.0534
      6  CG        28.3980    1.4190   50.3370 C.ar   14  PHE14      -0.0203
      7  CD1       29.7150    1.8410   50.2850 C.ar   14  PHE14      -0.0042
      8  CD2       28.0260    0.5190   51.3270 C.ar   14  PHE14      -0.0042
      9  CE1       30.6440    1.3750   51.2000 C.ar   14  PHE14      -0.0003
     10  CE2       28.9520    0.0440   52.2500 C.ar   14  PHE14      -0.0003
     11  CZ        30.2620    0.4720   52.1900 C.ar   14  PHE14      -0.0000
     12  N         27.3280   -7.1040   53.2080 N.3    56  LYS56      -0.1245
     13  CA        26.4040   -6.9710   54.3170 C.3    56  LYS56       0.1561
     14  C         25.2040   -6.0790   54.0570 C.2    56  LYS56       0.2260
     15  O         25.0530   -5.4900   53.0000 O.2    56  LYS56      -0.2867
     16  CB        27.1480   -6.4220   55.5300 C.3    56  LYS56       0.0271
     17  CG        27.7060   -5.0370   55.3010 C.3    56  LYS56       0.0035
     18  CD        28.1410   -4.4110   56.5990 C.3    56  LYS56       0.0206
     19  CE        29.3270   -5.1440   57.1830 C.3    56  LYS56       0.1093
     20  NZ        30.5290   -5.0740   56.2980 N.3    56  LYS56      -0.1314
     21  N         23.2220   -3.0120   56.0860 N.3    58  VAL58      -0.1245
     22  CA        23.3550   -2.1090   57.2020 C.3    58  VAL58       0.1561
     23  C         21.9900   -1.4510   57.2310 C.2    58  VAL58       0.2260
     24  O         21.8000   -0.3670   56.7140 O.2    58  VAL58      -0.2867
     25  CB        24.5000   -1.1030   56.9560 C.3    58  VAL58       0.0252
     26  CG1       24.5810   -0.1040   58.0730 C.3    58  VAL58       0.0019
     27  CG2       25.8100   -1.8470   56.8560 C.3    58  VAL58       0.0019
     28  N         25.6310   -3.4190   50.9690 N.3    63  MET63      -0.1245
     29  CA        27.0320   -3.3090   50.6100 C.3    63  MET63       0.1570
     30  C         27.2920   -4.5490   49.7970 C.2    63  MET63       0.2261
     31  O         26.9520   -5.6510   50.2210 O.2    63  MET63      -0.2867
     32  CB        27.9330   -3.3210   51.8460 C.3    63  MET63       0.0387
     33  CG        29.4270   -3.2890   51.5310 C.3    63  MET63       0.0595
     34  SD        30.4910   -3.1310   53.0020 S.3    63  MET63      -0.1393
     35  CE        32.0970   -3.0600   52.2830 C.3    63  MET63       0.0692
     36  N         34.5280   -8.9280   54.7630 N.3   138  THR138     -0.1203
     37  CA        34.3410   -7.5340   54.3740 C.3   138  THR138      0.1994
     38  C         35.6690   -6.8760   53.9630 C.2   138  THR138      0.2618
     39  O         36.7620   -7.3710   54.2450 O.2   138  THR138     -0.2717
     40  CB        33.6910   -6.7170   55.5260 C.3   138  THR138      0.1784
     41  OG1       33.0690   -5.5380   54.9970 O.3   138  THR138     -0.2211
     42  CG2       34.7410   -6.3180   56.5500 C.3   138  THR138      0.0376
     43  N         35.5540   -5.7550   53.2730 N.am  139  ALA139     -0.1965
     44  CA        36.7120   -5.0100   52.8360 C.3   139  ALA139      0.1728
     45  C         36.9120   -3.8920   53.8280 C.2   139  ALA139      0.2616
     46  O         35.9740   -3.4590   54.4850 O.2   139  ALA139     -0.2715
     47  CB        36.4750   -4.4460   51.4650 C.3   139  ALA139      0.0334
     48  N         38.1370   -3.4170   53.9350 N.am  140  ILE140     -0.1963
     49  CA        38.4300   -2.3580   54.8760 C.3   140  ILE140      0.1727
     50  C         39.4420   -1.4150   54.2700 C.2   140  ILE140      0.2616
     51  O         40.3620   -1.8540   53.6030 O.2   140  ILE140     -0.2715
     52  CB        39.0120   -2.9410   56.1900 C.3   140  ILE140      0.0290
     53  CG1       37.9430   -3.7740   56.9330 C.3   140  ILE140      0.0022
     54  CG2       39.6190   -1.8220   57.0250 C.3   140  ILE140      0.0023
     55  CD1       36.7080   -3.0350   57.3400 C.3   140  ILE140      0.0001
     56  N         39.2690   -0.1190   54.4910 N.am  141  GLY141     -0.1955
     57  CA        40.2230    0.8310   53.9540 C.3   141  GLY141      0.1869
     58  C         39.6270    2.1080   53.4150 C.2   141  GLY141      0.2309
     59  O         38.4160    2.2500   53.3400 O.2   141  GLY141     -0.2863
     60  N         36.9010    1.9170   50.8580 N.3   144  VAL144     -0.1231
     61  CA        35.5520    1.5630   51.2680 C.3   144  VAL144      0.1692
     62  C         34.8700    2.8430   51.7030 C.2   144  VAL144      0.2592
     63  O         33.7080    3.0970   51.3990 O.2   144  VAL144     -0.2718
     64  CB        35.5400    0.5880   52.4440 C.3   144  VAL144      0.0266
     65  CG1       34.1370    0.1730   52.7040 C.3   144  VAL144      0.0020
     66  CG2       36.3770   -0.6360   52.1380 C.3   144  VAL144      0.0020
     67  N         35.6150    3.6580   52.4210 N.am  145  ASN145     -0.1974
     68  CA        35.0860    4.9170   52.8750 C.3   145  ASN145      0.1688
     69  C         34.5890    5.6840   51.6600 C.2   145  ASN145      0.2292
     70  O         33.4580    6.1420   51.6310 O.2   145  ASN145     -0.2864
     71  CB        36.1760    5.7120   53.5920 C.3   145  ASN145      0.1181
     72  CG        35.7520    7.1360   53.9020 C.2   145  ASN145      0.2629
     73  OD1       34.8070    7.3590   54.6570 O.2   145  ASN145     -0.2716
     74  ND2       36.4420    8.1080   53.3120 N.am  145  ASN145     -0.0877
     75  N         31.2920    4.5540   50.0170 N.3   148  ALA148     -0.1231
     76  CA        30.2270    4.9020   50.9550 C.3   148  ALA148      0.1694
     77  C         29.8710    6.3700   50.9300 C.2   148  ALA148      0.2591
     78  O         28.7030    6.7370   50.9020 O.2   148  ALA148     -0.2718
     79  CB        30.6230    4.5100   52.3500 C.3   148  ALA148      0.0304
     80  N         30.8950    7.2090   50.9540 N.am  149  ARG149     -0.1980
     81  CA        30.6990    8.6420   50.9380 C.3   149  ARG149      0.1597
     82  C         30.1040    9.0600   49.6220 C.2   149  ARG149      0.2287
     83  O         29.3250    9.9990   49.5620 O.2   149  ARG149     -0.2864
     84  CB        32.0290    9.3580   51.1420 C.3   149  ARG149      0.0334
     85  CG        32.6240    9.1450   52.5160 C.3   149  ARG149      0.0492
     86  CD        31.6990    9.6680   53.5870 C.3   149  ARG149      0.2205
     87  NE        32.1850    9.3740   54.9300 N.pl3 149  ARG149     -0.0865
     88  CZ        31.5720    9.7740   56.0470 C.cat 149  ARG149      0.5346
     89  NH1       30.4420   10.4920   55.9690 N.pl3 149  ARG149      0.1354
     90  NH2       32.0720    9.4470   57.2460 N.pl3 149  ARG149      0.1354
     91  N         26.4240    8.5490   49.9010 N.3   152  GLU152     -0.1245
     92  CA        25.7030    9.4500   50.7770 C.3   152  GLU152      0.1567
     93  C         25.5990   10.8090   50.1250 C.2   152  GLU152      0.2260
     94  O         24.7230   11.5880   50.4540 O.2   152  GLU152     -0.2867
     95  CB        26.4170    9.6110   52.1170 C.3   152  GLU152      0.0388
     96  CG        26.6180    8.3240   52.8960 C.3   152  GLU152      0.1160
     97  CD        27.2480    8.5670   54.2600 C.2   152  GLU152      0.3649
     98  OE1       28.2460    9.3160   54.3240 O.co2 152  GLU152     -0.2457
     99  OE2       26.7510    8.0080   55.2660 O.co2 152  GLU152     -0.2457
    100  N         35.0510   13.7760   53.2430 N.3   183  LYS183     -0.1245
    101  CA        35.6260   13.7560   54.5910 C.3   183  LYS183      0.1561
    102  C         36.8260   12.8430   54.6670 C.2   183  LYS183      0.2260
    103  O         36.8420   11.7860   54.0220 O.2   183  LYS183     -0.2867
    104  CB        34.6080   13.2540   55.6180 C.3   183  LYS183      0.0271
    105  CG        35.2660   12.8700   56.9620 C.3   183  LYS183      0.0035
    106  CD        34.2470   12.3330   57.9640 C.3   183  LYS183      0.0206
    107  CE        34.9210   11.8570   59.2530 C.3   183  LYS183      0.1093
    108  NZ        33.9120   11.2500   60.1820 N.3   183  LYS183     -0.1314
@<TRIPOS>BOND
     1     4     3    2
     2     1     2    1
     3     3     2    1
     4     2     5    1
     5     5     6    1
     6    83    82    2
     7    82    81    1
     8    30    31    2
     9    30    29    1
    10    91    92    1
    11    75    76    1
    12    93    94    2
    13    93    92    1
    14     7     6   ar
    15     7     9   ar
    16     6     8   ar
    17    29    28    1
    18    29    32    1
    19    92    95    1
    20    60    61    1
    21    78    77    2
    22    77    80   am
    23    77    76    1
    24    81    80    1
    25    81    84    1
    26    76    79    1
    27    84    85    1
    28     9    11   ar
    29    61    62    1
    30    61    64    1
    31     8    10   ar
    32    63    62    2
    33    47    44    1
    34    33    32    1
    35    33    34    1
    36    70    69    2
    37    69    68    1
    38    62    67   am
    39    95    96    1
    40    66    64    1
    41    11    10   ar
    42    35    34    1
    43    67    68    1
    44    64    65    1
    45    85    86    1
    46    44    43    1
    47    44    45    1
    48    68    71    1
    49    96    97    1
    50    15    14    2
    51    12    13    1
    52   100   101    1
    53    43    38   am
    54    74    72   am
    55    59    58    2
    56    58    57    1
    57    86    87    1
    58    71    72    1
    59    51    50    2
    60    45    48   am
    61    45    46    2
    62    72    73    2
    63    48    49    1
    64    57    56    1
    65    38    39    2
    66    38    37    1
    67   103   102    2
    68    14    13    1
    69    97    98   ar
    70    97    99   ar
    71    50    56   am
    72    50    49    1
    73    13    16    1
    74    37    36    1
    75    37    40    1
    76   101   102    1
    77   101   104    1
    78    49    52    1
    79    87    88    2
    80    41    40    1
    81    17    16    1
    82    17    18    1
    83    40    42    1
    84   104   105    1
    85    89    88    1
    86    88    90    1
    87    21    22    1
    88    52    53    1
    89    52    54    1
    90    20    19    1
    91    18    19    1
    92    24    23    2
    93    27    25    1
    94    53    55    1
    95    25    22    1
    96    25    26    1
    97   105   106    1
    98    22    23    1
    99   106   107    1
   100   107   108    1
