@<TRIPOS>MOLECULE
tmp/1wc4A00.pdb
 97 96 0 0 0
SMALL
GASTEIGER

@<TRIPOS>ATOM
      1  N         21.5080    2.7650   49.2060 N.3    16  ASP16      -0.1225
      2  CA        20.6280    3.0120   50.3280 C.3    16  ASP16       0.1805
      3  C         19.3200    3.6430   49.8910 C.2    16  ASP16       0.2598
      4  O         19.2690    4.3730   48.8940 O.2    16  ASP16      -0.2718
      5  CB        21.3550    3.9090   51.3290 C.3    16  ASP16       0.1424
      6  CG        20.4370    4.4860   52.3830 C.2    16  ASP16       0.3668
      7  OD1       19.3280    3.9410   52.6000 O.co2  16  ASP16      -0.2456
      8  OD2       20.8380    5.4910   53.0130 O.co2  16  ASP16      -0.2456
      9  N         18.2580    3.3550   50.6290 N.am   17  ILE17      -0.1966
     10  CA        16.9710    3.9240   50.2970 C.3    17  ILE17       0.1727
     11  C         16.4660    4.8770   51.3550 C.2    17  ILE17       0.2616
     12  O         17.0690    5.0100   52.4200 O.2    17  ILE17      -0.2715
     13  CB        15.9580    2.8300   50.0680 C.3    17  ILE17       0.0290
     14  CG1       15.8470    1.9850   51.3280 C.3    17  ILE17       0.0022
     15  CG2       16.4030    1.9620   48.8800 C.3    17  ILE17       0.0023
     16  CD1       14.8710    0.9090   51.1840 C.3    17  ILE17       0.0001
     17  N         15.3670    5.5500   51.0110 N.am   18  VAL18      -0.1963
     18  CA        14.7130    6.5460   51.8580 C.3    18  VAL18       0.1727
     19  C         13.1890    6.6380   51.6680 C.2    18  VAL18       0.2617
     20  O         12.6510    7.0720   50.6170 O.2    18  VAL18      -0.2715
     21  CB        15.3240    7.9600   51.6520 C.3    18  VAL18       0.0290
     22  CG1       15.1130    8.8450   52.9060 C.3    18  VAL18       0.0023
     23  CG2       16.7890    7.8290   51.3490 C.3    18  VAL18       0.0023
     24  N         12.4970    6.2140   52.7240 N.am   19  GLY19      -0.1940
     25  CA        11.0410    6.2100   52.7520 C.3    19  GLY19       0.2014
     26  C         10.5500    4.9320   53.4190 C.2    19  GLY19       0.2639
     27  O          9.4170    4.4800   53.1940 O.2    19  GLY19      -0.2714
     28  N         11.4350    4.3710   54.2600 N.am   20  PHE20      -0.1959
     29  CA        11.2070    3.1250   54.9680 C.3    20  PHE20       0.1771
     30  C         10.2780    3.4080   56.1600 C.2    20  PHE20       0.2620
     31  O          9.1010    3.0100   56.1640 O.2    20  PHE20      -0.2715
     32  CB        12.5790    2.5220   55.3290 C.3    20  PHE20       0.0574
     33  CG        12.5230    1.0930   55.7540 C.ar   20  PHE20      -0.0200
     34  CD1       11.9100    0.1180   54.9520 C.ar   20  PHE20      -0.0042
     35  CD2       13.0120    0.7300   56.9960 C.ar   20  PHE20      -0.0042
     36  CE1       11.7800   -1.2060   55.3980 C.ar   20  PHE20      -0.0003
     37  CE2       12.8910   -0.5850   57.4530 C.ar   20  PHE20      -0.0003
     38  CZ        12.2740   -1.5520   56.6530 C.ar   20  PHE20      -0.0000
     39  N         10.8070    4.0360   57.2460 N.am   21  THR21      -0.1937
     40  CA         9.8590    4.3140   58.2570 C.3    21  THR21       0.2028
     41  C          9.5280    5.6930   58.1480 C.2    21  THR21       0.2642
     42  O         10.0290    6.7110   58.6400 O.2    21  THR21      -0.2714
     43  CB        10.1080    4.0230   59.7290 C.3    21  THR21       0.1808
     44  OG1        9.7100    2.6700   59.9470 O.3    21  THR21      -0.2208
     45  CG2        9.1610    4.8430   60.6390 C.3    21  THR21       0.0379
     46  N          8.4550    5.5590   57.4320 N.am   22  ARG22      -0.1977
     47  CA         7.6610    6.5870   56.9580 C.3    22  ARG22       0.1597
     48  C          6.6190    5.7690   56.2910 C.2    22  ARG22       0.2287
     49  O          5.4450    5.9440   56.5920 O.2    22  ARG22      -0.2864
     50  CB         8.4510    7.3950   55.9780 C.3    22  ARG22       0.0334
     51  CG         7.6930    8.6960   55.6650 C.3    22  ARG22       0.0492
     52  CD         7.3710    9.5210   56.9490 C.3    22  ARG22       0.2205
     53  NE         5.9830    9.4090   57.4480 N.pl3  22  ARG22      -0.0865
     54  CZ         4.8990    9.8070   56.7690 C.cat  22  ARG22       0.5346
     55  NH1        3.6620    9.6860   57.2820 N.pl3  22  ARG22       0.1354
     56  NH2        5.0520   10.3220   55.5500 N.pl3  22  ARG22       0.1354
     57  N         24.3450   -6.0160   55.0650 N.3    57  PHE57      -0.1227
     58  CA        23.1520   -5.1890   55.0520 C.3    57  PHE57       0.1736
     59  C         23.3500   -4.3100   56.2660 C.2    57  PHE57       0.2595
     60  O         23.6330   -4.8030   57.3530 O.2    57  PHE57      -0.2718
     61  CB        21.8850   -6.0070   55.2930 C.3    57  PHE57       0.0547
     62  CG        21.5600   -6.9810   54.2100 C.ar   57  PHE57      -0.0202
     63  CD1       20.9330   -8.1820   54.5210 C.ar   57  PHE57      -0.0042
     64  CD2       21.8320   -6.6960   52.8780 C.ar   57  PHE57      -0.0042
     65  CE1       20.5770   -9.0910   53.5240 C.ar   57  PHE57      -0.0003
     66  CE2       21.4790   -7.6010   51.8670 C.ar   57  PHE57      -0.0003
     67  CZ        20.8490   -8.8010   52.1930 C.ar   57  PHE57      -0.0000
     68  N         23.2220   -3.0120   56.0860 N.am   58  VAL58      -0.1966
     69  CA        23.3550   -2.1090   57.2020 C.3    58  VAL58       0.1727
     70  C         21.9900   -1.4510   57.2310 C.2    58  VAL58       0.2617
     71  O         21.8000   -0.3670   56.7140 O.2    58  VAL58      -0.2715
     72  CB        24.5000   -1.1030   56.9560 C.3    58  VAL58       0.0290
     73  CG1       24.5810   -0.1040   58.0730 C.3    58  VAL58       0.0023
     74  CG2       25.8100   -1.8470   56.8560 C.3    58  VAL58       0.0023
     75  N         21.0190   -2.1400   57.8150 N.am   59  GLY59      -0.1940
     76  CA        19.6760   -1.5930   57.8510 C.3    59  GLY59       0.2014
     77  C         19.0520   -1.6880   56.4720 C.2    59  GLY59       0.2638
     78  O         18.8440   -2.7900   55.9830 O.2    59  GLY59      -0.2714
     79  N         18.7640   -0.5460   55.8450 N.am   60  ASP60      -0.1971
     80  CA        18.1770   -0.5200   54.5100 C.3    60  ASP60       0.1709
     81  C         19.2540   -0.3150   53.4690 C.2    60  ASP60       0.2293
     82  O         18.9610   -0.0980   52.2870 O.2    60  ASP60      -0.2864
     83  CB        17.1380    0.5970   54.3660 C.3    60  ASP60       0.1436
     84  CG        17.7070    1.9670   54.6560 C.2    60  ASP60       0.3671
     85  OD1       17.4320    2.9120   53.8880 O.co2  60  ASP60      -0.2456
     86  OD2       18.4220    2.1120   55.6630 O.co2  60  ASP60      -0.2456
     87  N         19.8630    5.6400   46.5690 N.3   116  ARG116     -0.1245
     88  CA        21.1940    6.2300   46.4660 C.3   116  ARG116      0.1563
     89  C         22.2820    5.1830   46.3360 C.2   116  ARG116      0.2260
     90  O         22.4470    4.3210   47.2010 O.2   116  ARG116     -0.2867
     91  CB        21.4970    7.1360   47.6390 C.3   116  ARG116      0.0307
     92  CG        21.1130    8.5280   47.3190 C.3   116  ARG116      0.0489
     93  CD        21.9670    9.5010   48.0550 C.3   116  ARG116      0.2205
     94  NE        21.1290   10.3620   48.8750 N.pl3 116  ARG116     -0.0865
     95  CZ        20.6090    9.9540   50.0240 C.cat 116  ARG116      0.5346
     96  NH1       20.8700    8.7200   50.4360 N.pl3 116  ARG116      0.1354
     97  NH2       19.8390   10.7520   50.7500 N.pl3 116  ARG116      0.1354
@<TRIPOS>BOND
     1    89    88    1
     2    89    90    2
     3    88    87    1
     4    88    91    1
     5    92    91    1
     6    92    93    1
     7    93    94    1
     8    94    95    2
     9    15    13    1
    10     4     3    2
    11     1     2    1
    12     3     2    1
    13     3     9   am
    14    95    96    1
    15    95    97    1
    16    13    10    1
    17    13    14    1
    18    10     9    1
    19    10    11    1
    20     2     5    1
    21    20    19    2
    22    17    11   am
    23    17    18    1
    24    16    14    1
    25     5     6    1
    26    23    21    1
    27    11    12    2
    28    21    18    1
    29    21    22    1
    30    19    18    1
    31    19    24   am
    32    66    67   ar
    33    66    64   ar
    34    67    65   ar
    35    82    81    2
    36     6     7   ar
    37     6     8   ar
    38    24    25    1
    39    25    26    1
    40    64    62   ar
    41    27    26    2
    42    26    28   am
    43    81    80    1
    44    65    63   ar
    45    85    84   ar
    46    62    63   ar
    47    62    61    1
    48    28    29    1
    49    83    80    1
    50    83    84    1
    51    80    79    1
    52    84    86   ar
    53    34    36   ar
    54    34    33   ar
    55    29    32    1
    56    29    30    1
    57    58    57    1
    58    58    61    1
    59    58    59    1
    60    32    33    1
    61    36    38   ar
    62    56    54    1
    63    51    50    1
    64    51    52    1
    65    33    35   ar
    66    79    77   am
    67    50    47    1
    68    78    77    2
    69    68    59   am
    70    68    69    1
    71    30    31    2
    72    30    39   am
    73    59    60    2
    74    48    49    2
    75    48    47    1
    76    77    76    1
    77    38    37   ar
    78    71    70    2
    79    54    55    1
    80    54    53    2
    81    74    72    1
    82    52    53    1
    83    72    69    1
    84    72    73    1
    85    47    46    1
    86    35    37   ar
    87    69    70    1
    88    70    75   am
    89    39    40    1
    90    46    41   am
    91    75    76    1
    92    41    40    1
    93    41    42    2
    94    40    43    1
    95    43    44    1
    96    43    45    1
