@<TRIPOS>MOLECULE
tmp/1wc8A00.pdb
 180 171 0 0 0
SMALL
GASTEIGER

@<TRIPOS>ATOM
      1  N          2.1740    9.5060   39.6400 N.3    47  LEU47      -0.1231
      2  CA         3.0440    8.5420   38.9960 C.3    47  LEU47       0.1693
      3  C          4.4370    8.4880   39.5600 C.2    47  LEU47       0.2591
      4  O          5.0640    7.4310   39.5700 O.2    47  LEU47      -0.2718
      5  CB         3.1180    8.8170   37.5060 C.3    47  LEU47       0.0284
      6  CG         3.6610    7.6210   36.7110 C.3    47  LEU47       0.0019
      7  CD1        2.8480    6.3510   37.0340 C.3    47  LEU47       0.0001
      8  CD2        3.5660    7.9350   35.2380 C.3    47  LEU47       0.0001
      9  N          4.9270    9.6330   40.0110 N.am   48  ILE48      -0.1980
     10  CA         6.2700    9.6820   40.5500 C.3    48  ILE48       0.1595
     11  C          6.4150    8.7780   41.7710 C.2    48  ILE48       0.2287
     12  O          7.4870    8.2300   42.0150 O.2    48  ILE48      -0.2864
     13  CB         6.6600   11.1190   40.8800 C.3    48  ILE48       0.0276
     14  CG1        8.1140   11.1590   41.3570 C.3    48  ILE48       0.0022
     15  CG2        5.7140   11.6830   41.9330 C.3    48  ILE48       0.0022
     16  CD1        9.1110   10.7690   40.3190 C.3    48  ILE48       0.0001
     17  N          7.1040    5.3930   40.4020 N.3    51  PHE51      -0.1227
     18  CA         8.4570    5.3330   39.8320 C.3    51  PHE51       0.1736
     19  C          9.5660    5.1580   40.8720 C.2    51  PHE51       0.2595
     20  O         10.4290    4.2910   40.7340 O.2    51  PHE51      -0.2718
     21  CB         8.7510    6.5900   39.0170 C.3    51  PHE51       0.0547
     22  CG        10.0110    6.4880   38.2170 C.ar   51  PHE51      -0.0202
     23  CD1       10.1070    5.5860   37.1710 C.ar   51  PHE51      -0.0042
     24  CD2       11.1100    7.2570   38.5360 C.ar   51  PHE51      -0.0042
     25  CE1       11.2840    5.4510   36.4520 C.ar   51  PHE51      -0.0003
     26  CE2       12.2960    7.1250   37.8220 C.ar   51  PHE51      -0.0003
     27  CZ        12.3800    6.2260   36.7840 C.ar   51  PHE51      -0.0000
     28  N          9.5350    5.9970   41.9030 N.am   52  LEU52      -0.1980
     29  CA        10.5540    5.9560   42.9710 C.3    52  LEU52       0.1596
     30  C         10.5630    4.6550   43.7750 C.2    52  LEU52       0.2287
     31  O         11.4670    4.4360   44.5710 O.2    52  LEU52      -0.2864
     32  CB        10.3690    7.1290   43.9200 C.3    52  LEU52       0.0297
     33  CG        10.5560    8.5450   43.3790 C.3    52  LEU52       0.0022
     34  CD1       10.2340    9.5520   44.4880 C.3    52  LEU52       0.0001
     35  CD2       11.9580    8.7260   42.8700 C.3    52  LEU52       0.0001
     36  N         16.7520    6.0880   42.3810 N.3    57  VAL57      -0.1231
     37  CA        17.2110    7.4600   42.1030 C.3    57  VAL57       0.1692
     38  C         16.8690    8.4620   43.2050 C.2    57  VAL57       0.2592
     39  O         16.0110    8.1960   44.0480 O.2    57  VAL57      -0.2718
     40  CB        16.6050    7.9860   40.7810 C.3    57  VAL57       0.0266
     41  CG1       16.6310    6.8900   39.7250 C.3    57  VAL57       0.0020
     42  CG2       15.1810    8.4890   41.0180 C.3    57  VAL57       0.0020
     43  N         17.5290    9.6170   43.1840 N.am   58  GLY58      -0.1957
     44  CA        17.2670   10.6270   44.1910 C.3    58  GLY58       0.1869
     45  C         18.5100   11.3710   44.6460 C.2    58  GLY58       0.2309
     46  O         19.5990   10.8000   44.7230 O.2    58  GLY58      -0.2863
     47  N         17.1790   15.1500   43.3760 N.3    59  CYS59      -0.1221
     48  CA        18.3530   14.2930   43.1180 C.3    59  CYS59       0.1808
     49  C         19.5430   14.9670   42.4540 C.2    59  CYS59       0.2601
     50  O         19.5340   16.1710   42.1770 O.2    59  CYS59      -0.2717
     51  CB        17.9880   13.0580   42.2910 C.3    59  CYS59       0.0970
     52  SG        16.4610   13.0870   41.3120 S.3    59  CYS59      -0.0800
     53  N         20.5320   14.1300   42.1420 N.am   60  HIS60      -0.1975
     54  CA        21.7950   14.5250   41.4860 C.3    60  HIS60       0.1656
     55  C         21.7950   15.8990   40.8110 C.2    60  HIS60       0.2291
     56  O         21.8280   16.9390   41.4770 O.2    60  HIS60      -0.2864
     57  CB        22.1970   13.4340   40.4720 C.3    60  HIS60       0.0771
     58  CG        21.7760   12.0510   40.9150 C.ar   60  HIS60       0.0820
     59  ND1       22.4260   11.2640   41.8410 N.ar   60  HIS60      -0.2267
     60  CD2       20.7240   11.3140   40.4070 C.ar   60  HIS60       0.1154
     61  CE1       21.7690   10.1110   41.9330 C.ar   60  HIS60       0.1986
     62  NE2       20.7550   10.1120   41.0860 N.ar   60  HIS60      -0.2212
     63  N         21.7050   14.0230   34.9430 N.3    64  GLU64      -0.1231
     64  CA        21.3490   12.6890   35.4470 C.3    64  GLU64       0.1699
     65  C         19.8440   12.4920   35.2860 C.2    64  GLU64       0.2592
     66  O         19.3650   11.4310   34.8720 O.2    64  GLU64      -0.2718
     67  CB        21.7430   12.5610   36.9390 C.3    64  GLU64       0.0402
     68  CG        23.2260   12.2960   37.1430 C.3    64  GLU64       0.1161
     69  CD        23.6390   10.8820   36.7720 C.2    64  GLU64       0.3649
     70  OE1       22.7840    9.9690   36.7320 O.co2  64  GLU64      -0.2457
     71  OE2       24.8470   10.6750   36.5180 O.co2  64  GLU64      -0.2457
     72  N         19.1130   13.5510   35.6040 N.am   65  THR65      -0.1953
     73  CA        17.6670   13.5430   35.4830 C.3    65  THR65       0.1897
     74  C         17.2130   13.2290   34.0680 C.2    65  THR65       0.2313
     75  O         16.3440   12.3880   33.8640 O.2    65  THR65      -0.2863
     76  CB        17.1060   14.8820   35.9280 C.3    65  THR65       0.1794
     77  OG1       17.3450   15.0270   37.3350 O.3    65  THR65      -0.2208
     78  CG2       15.6190   14.9620   35.6770 C.3    65  THR65       0.0378
     79  N         17.6370    9.5180   33.4160 N.3    68  VAL68      -0.1231
     80  CA        16.6200    8.6830   34.0630 C.3    68  VAL68       0.1692
     81  C         15.2610    8.8060   33.3630 C.2    68  VAL68       0.2591
     82  O         14.5800    7.8110   33.1590 O.2    68  VAL68      -0.2718
     83  CB        16.4360    9.0650   35.5360 C.3    68  VAL68       0.0266
     84  CG1       15.3430    8.2140   36.1550 C.3    68  VAL68       0.0020
     85  CG2       17.7590    8.8730   36.2910 C.3    68  VAL68       0.0020
     86  N         14.8720   10.0170   32.9840 N.am   69  ILE69      -0.1980
     87  CA        13.5770   10.1890   32.2620 C.3    69  ILE69       0.1595
     88  C         13.5210    9.4140   30.9500 C.2    69  ILE69       0.2287
     89  O         12.5860    8.6380   30.7040 O.2    69  ILE69      -0.2864
     90  CB        13.3430   11.6530   31.9650 C.3    69  ILE69       0.0276
     91  CG1       13.1700   12.3880   33.2850 C.3    69  ILE69       0.0022
     92  CG2       12.1490   11.8340   30.9870 C.3    69  ILE69       0.0022
     93  CD1       13.2120   13.8840   33.1330 C.3    69  ILE69       0.0001
     94  N         12.2810    5.9860   32.9310 N.3    73  ALA73      -0.1231
     95  CA        10.8580    6.3190   33.0430 C.3    73  ALA73       0.1694
     96  C         10.0670    6.1500   31.7390 C.2    73  ALA73       0.2592
     97  O          8.9960    5.5150   31.7500 O.2    73  ALA73      -0.2718
     98  CB        10.6840    7.7330   33.6340 C.3    73  ALA73       0.0304
     99  N         10.5590    6.6780   30.6150 N.am   74  PHE74      -0.1976
    100  CA         9.7910    6.4830   29.3600 C.3    74  PHE74       0.1639
    101  C          9.6670    5.0340   28.9470 C.2    74  PHE74       0.2290
    102  O          8.6380    4.5930   28.4000 O.2    74  PHE74      -0.2864
    103  CB        10.3930    7.2410   28.1550 C.3    74  PHE74       0.0560
    104  CG         9.7970    8.6220   27.9470 C.ar   74  PHE74      -0.0200
    105  CD1       10.2410    9.7170   28.7030 C.ar   74  PHE74      -0.0042
    106  CD2        8.8170    8.8370   26.9790 C.ar   74  PHE74      -0.0042
    107  CE1        9.7170   11.0230   28.4800 C.ar   74  PHE74      -0.0003
    108  CE2        8.2730   10.1230   26.7500 C.ar   74  PHE74      -0.0003
    109  CZ         8.7250   11.2190   27.4930 C.ar   74  PHE74      -0.0000
    110  N          7.1110    3.3510   31.3900 N.3    77  TYR77      -0.1227
    111  CA         5.6860    3.7050   31.2170 C.3    77  TYR77       0.1736
    112  C          5.1410    3.7860   29.8130 C.2    77  TYR77       0.2595
    113  O          3.9160    3.8040   29.6520 O.2    77  TYR77      -0.2718
    114  CB         5.3840    5.0030   31.9530 C.3    77  TYR77       0.0548
    115  CG         5.6600    4.8560   33.4250 C.ar   77  TYR77      -0.0200
    116  CD1        6.5770    5.6870   34.0730 C.ar   77  TYR77      -0.0009
    117  CD2        4.9900    3.8730   34.1830 C.ar   77  TYR77      -0.0009
    118  CE1        6.8210    5.5570   35.4540 C.ar   77  TYR77       0.0417
    119  CE2        5.2360    3.7330   35.5690 C.ar   77  TYR77       0.0417
    120  CZ         6.1450    4.5810   36.1930 C.ar   77  TYR77       0.1957
    121  OH         6.3440    4.4890   37.5690 O.3    77  TYR77      -0.2866
    122  N          6.0170    3.8020   28.8060 N.am   78  LEU78      -0.1980
    123  CA         5.5890    3.9050   27.4140 C.3    78  LEU78       0.1596
    124  C          6.2640    2.9100   26.4940 C.2    78  LEU78       0.2287
    125  O          5.9490    2.8880   25.3210 O.2    78  LEU78      -0.2864
    126  CB         5.8370    5.3340   26.8860 C.3    78  LEU78       0.0297
    127  CG         4.7140    6.2720   26.4840 C.3    78  LEU78       0.0022
    128  CD1        3.4150    5.8510   27.1630 C.3    78  LEU78       0.0001
    129  CD2        5.1030    7.7290   26.8470 C.3    78  LEU78       0.0001
    130  N          1.7560   14.4930   28.0450 N.3   122  LEU122     -0.1245
    131  CA         3.1490   14.1490   28.4210 C.3   122  LEU122      0.1561
    132  C          3.9100   15.3180   29.0300 C.2   122  LEU122      0.2260
    133  O          4.7280   15.1260   29.9280 O.2   122  LEU122     -0.2867
    134  CB         3.9330   13.5720   27.2170 C.3   122  LEU122      0.0270
    135  CG         3.3840   12.2470   26.6660 C.3   122  LEU122      0.0019
    136  CD1        4.3230   11.7090   25.5590 C.3   122  LEU122      0.0001
    137  CD2        3.3130   11.2350   27.7980 C.3   122  LEU122      0.0001
    138  N          2.6190   15.4750   32.5850 N.3   125  VAL125     -0.1231
    139  CA         3.1720   14.3770   33.3940 C.3   125  VAL125      0.1692
    140  C          4.5850   14.6570   33.8620 C.2   125  VAL125      0.2591
    141  O          4.8970   14.4720   35.0470 O.2   125  VAL125     -0.2718
    142  CB         3.1300   13.0370   32.6100 C.3   125  VAL125      0.0266
    143  CG1        3.8430   11.9400   33.3620 C.3   125  VAL125      0.0020
    144  CG2        1.6420   12.6520   32.3920 C.3   125  VAL125      0.0020
    145  N          5.4220   15.0910   32.9240 N.am  126  LEU126     -0.1980
    146  CA         6.8170   15.4360   33.2090 C.3   126  LEU126      0.1596
    147  C          6.9380   16.5400   34.2380 C.2   126  LEU126      0.2287
    148  O          7.6400   16.3930   35.2310 O.2   126  LEU126     -0.2864
    149  CB         7.5250   15.8460   31.9220 C.3   126  LEU126      0.0297
    150  CG         7.8250   14.6270   31.0280 C.3   126  LEU126      0.0022
    151  CD1        8.1530   15.1120   29.6370 C.3   126  LEU126      0.0001
    152  CD2        8.9650   13.8010   31.5740 C.3   126  LEU126      0.0001
    153  N          5.5990   15.2550   37.7780 N.3   129  ALA129     -0.1231
    154  CA         6.4760   14.2730   38.4240 C.3   129  ALA129      0.1694
    155  C          7.7710   14.9450   38.9350 C.2   129  ALA129      0.2591
    156  O          8.1980   14.7420   40.0740 O.2   129  ALA129     -0.2718
    157  CB         6.8170   13.1430   37.4260 C.3   129  ALA129      0.0304
    158  N          8.3660   15.7700   38.0840 N.am  130  LEU130     -0.1980
    159  CA         9.5920   16.4660   38.4540 C.3   130  LEU130      0.1596
    160  C          9.3920   17.3940   39.6360 C.2   130  LEU130      0.2287
    161  O         10.2650   17.5350   40.4860 O.2   130  LEU130     -0.2864
    162  CB        10.1320   17.2300   37.2420 C.3   130  LEU130      0.0297
    163  CG        10.8380   16.2670   36.2780 C.3   130  LEU130      0.0022
    164  CD1       11.0430   16.9140   34.9050 C.3   130  LEU130      0.0001
    165  CD2       12.1710   15.8660   36.9030 C.3   130  LEU130      0.0001
    166  N         10.0230   15.9970   42.8990 N.3   133  VAL133     -0.1245
    167  CA        11.4150   15.7260   43.2290 C.3   133  VAL133      0.1561
    168  C         12.1290   17.0580   43.3360 C.2   133  VAL133      0.2260
    169  O         13.2960   17.2330   43.0200 O.2   133  VAL133     -0.2867
    170  CB        12.1100   14.7730   42.2080 C.3   133  VAL133      0.0252
    171  CG1       11.5490   13.3450   42.3700 C.3   133  VAL133      0.0019
    172  CG2       11.9310   15.2630   40.7960 C.3   133  VAL133      0.0019
    173  N         11.9780   19.7750   41.6390 N.3   135  MET135     -0.1245
    174  CA        12.5230   20.3620   40.4240 C.3   135  MET135      0.1570
    175  C         11.4430   21.0220   39.6250 C.2   135  MET135      0.2261
    176  O         10.4950   20.3660   39.2240 O.2   135  MET135     -0.2867
    177  CB        13.2280   19.3150   39.5450 C.3   135  MET135      0.0387
    178  CG        14.6350   18.9810   39.9720 C.3   135  MET135      0.0595
    179  SD        15.4830   17.8550   38.8590 S.3   135  MET135     -0.1393
    180  CE        15.4130   16.3090   39.8220 C.3   135  MET135      0.0692
@<TRIPOS>BOND
     1   125   124    2
     2   136   135    1
     3   127   129    1
     4   127   126    1
     5   127   128    1
     6   124   123    1
     7   135   134    1
     8   135   137    1
     9   108   106   ar
    10   108   109   ar
    11   126   123    1
    12   106   104   ar
    13   134   131    1
    14   123   122    1
    15   109   107   ar
    16   104   103    1
    17   104   105   ar
    18   130   131    1
    19   103   100    1
    20   102   101    2
    21   131   132    1
    22   107   105   ar
    23   122   112   am
    24   101   100    1
    25   132   133    2
    26   100    99    1
    27   151   150    1
    28   113   112    2
    29   112   111    1
    30    99    96   am
    31    89    88    2
    32    88    87    1
    33    92    90    1
    34   150   152    1
    35   150   149    1
    36   111   110    1
    37   111   114    1
    38    96    97    2
    39    96    95    1
    40   149   146    1
    41   114   115    1
    42    90    87    1
    43    90    91    1
    44    87    86    1
    45   144   142    1
    46   138   139    1
    47   142   143    1
    48   142   139    1
    49   145   146    1
    50   145   140   am
    51    94    95    1
    52    86    81   am
    53    95    98    1
    54    93    91    1
    55    82    81    2
    56   146   147    1
    57    81    80    1
    58   139   140    1
    59    79    80    1
    60   115   116   ar
    61   115   117   ar
    62   140   141    2
    63    75    74    2
    64    80    83    1
    65    74    73    1
    66   116   118   ar
    67   117   119   ar
    68   147   148    2
    69    66    65    2
    70   164   163    1
    71    63    64    1
    72     8     6    1
    73    65    64    1
    74    65    72   am
    75    64    67    1
    76   118   120   ar
    77    73    72    1
    78    73    76    1
    79    83    84    1
    80    83    85    1
    81   119   120   ar
    82    78    76    1
    83    76    77    1
    84   120   121    1
    85   163   165    1
    86   163   162    1
    87    25    27   ar
    88    25    23   ar
    89    71    69   ar
    90     6     7    1
    91     6     5    1
    92    70    69   ar
    93    69    68    1
    94    27    26   ar
    95    67    68    1
    96    23    22   ar
    97   162   159    1
    98   157   154    1
    99     5     2    1
   100   153   154    1
   101    26    24   ar
   102   158   159    1
   103   158   155   am
   104    22    24   ar
   105    22    21    1
   106   154   155    1
   107   159   160    1
   108   179   180    1
   109   179   178    1
   110   155   156    2
   111     2     3    1
   112     2     1    1
   113    21    18    1
   114   176   175    2
   115   177   178    1
   116   177   174    1
   117     3     4    2
   118     3     9   am
   119   175   174    1
   120   160   161    2
   121    41    40    1
   122    18    17    1
   123    18    19    1
   124     9    10    1
   125    16    14    1
   126    60    58   ar
   127    60    62   ar
   128   174   173    1
   129    57    58    1
   130    57    54    1
   131    10    13    1
   132    10    11    1
   133    20    19    2
   134    40    42    1
   135    40    37    1
   136   172   170    1
   137    55    56    2
   138    55    54    1
   139    19    28   am
   140    13    14    1
   141    13    15    1
   142    58    59   ar
   143    62    61   ar
   144    52    51    1
   145    54    53    1
   146    11    12    2
   147    59    61   ar
   148    28    29    1
   149    37    36    1
   150    37    38    1
   151    53    49   am
   152    50    49    2
   153   170   171    1
   154   170   167    1
   155    51    48    1
   156    49    48    1
   157    35    33    1
   158   166   167    1
   159    29    30    1
   160    29    32    1
   161   169   168    2
   162    48    47    1
   163    43    38   am
   164    43    44    1
   165    38    39    2
   166   167   168    1
   167    33    32    1
   168    33    34    1
   169    30    31    2
   170    44    45    1
   171    45    46    2
