@<TRIPOS>MOLECULE
tmp/1wccA00.pdb
 96 90 0 0 0
SMALL
GASTEIGER

@<TRIPOS>ATOM
      1  N         25.8820   12.6820   69.1020 N.3    10  ILE10      -0.1245
      2  CA        26.9750   12.3200   68.2090 C.3    10  ILE10       0.1561
      3  C         26.8600   13.0250   66.8690 C.2    10  ILE10       0.2260
      4  O         27.8480   13.1500   66.1460 O.2    10  ILE10      -0.2867
      5  CB        27.0250   10.7790   68.0380 C.3    10  ILE10       0.0252
      6  CG1       27.9820   10.1980   69.0560 C.3    10  ILE10       0.0019
      7  CG2       27.4550   10.3590   66.6350 C.3    10  ILE10       0.0019
      8  CD1       28.0500    8.7280   69.0110 C.3    10  ILE10       0.0001
      9  N         21.5720   11.4680   66.2160 N.3    18  VAL18      -0.1245
     10  CA        22.2760   10.2330   66.5570 C.3    18  VAL18       0.1561
     11  C         22.9300   10.4140   67.9120 C.2    18  VAL18       0.2260
     12  O         23.6790   11.3650   68.1270 O.2    18  VAL18      -0.2867
     13  CB        23.3640    9.9060   65.5370 C.3    18  VAL18       0.0252
     14  CG1       23.9880    8.5030   65.8360 C.3    18  VAL18       0.0019
     15  CG2       22.7980    9.9510   64.1320 C.3    18  VAL18       0.0019
     16  N         24.7590    3.0690   69.1410 N.3    31  ALA31      -0.1245
     17  CA        24.3220    4.2830   68.4720 C.3    31  ALA31       0.1562
     18  C         22.7990    4.2550   68.3610 C.2    31  ALA31       0.2260
     19  O         22.2160    3.3520   67.7480 O.2    31  ALA31      -0.2867
     20  CB        24.9550    4.4090   67.1070 C.3    31  ALA31       0.0290
     21  N         19.5360    6.0570   66.9370 N.3    33  LYS33      -0.1245
     22  CA        19.0540    7.0010   65.9340 C.3    33  LYS33       0.1561
     23  C         17.5410    7.2370   66.0260 C.2    33  LYS33       0.2260
     24  O         16.7600    6.3020   65.9720 O.2    33  LYS33      -0.2867
     25  CB        19.4590    6.5240   64.5490 C.3    33  LYS33       0.0271
     26  CG        20.9470    6.3960   64.3820 C.3    33  LYS33       0.0035
     27  CD        21.3640    6.4060   62.8900 C.3    33  LYS33       0.0206
     28  CE        22.8790    6.3720   62.7520 C.3    33  LYS33       0.1093
     29  NZ        23.3470    6.4730   61.3360 N.3    33  LYS33      -0.1314
     30  N         27.3030   -2.1450   59.5620 N.3    60  VAL60      -0.1245
     31  CA        27.0280   -1.7770   60.9500 C.3    60  VAL60       0.1561
     32  C         25.7460   -2.4990   61.3580 C.2    60  VAL60       0.2260
     33  O         24.7080   -2.3470   60.6970 O.2    60  VAL60      -0.2867
     34  CB        26.8340   -0.2470   61.1430 C.3    60  VAL60       0.0252
     35  CG1       26.5260    0.0830   62.6290 C.3    60  VAL60       0.0019
     36  CG2       28.0550    0.5180   60.6900 C.3    60  VAL60       0.0019
     37  N         21.9120    0.7760   66.6780 N.3    76  PHE76      -0.1227
     38  CA        22.9940    0.1840   65.9020 C.3    76  PHE76       0.1736
     39  C         24.1520   -0.1370   66.8130 C.2    76  PHE76       0.2595
     40  O         24.2890    0.4760   67.8910 O.2    76  PHE76      -0.2718
     41  CB        23.4810    1.1670   64.8220 C.3    76  PHE76       0.0547
     42  CG        22.5410    1.3100   63.6780 C.ar   76  PHE76      -0.0202
     43  CD1       22.5060    0.3510   62.6680 C.ar   76  PHE76      -0.0042
     44  CD2       21.7020    2.4130   63.5850 C.ar   76  PHE76      -0.0042
     45  CE1       21.6310    0.4790   61.6000 C.ar   76  PHE76      -0.0003
     46  CE2       20.8310    2.5500   62.5150 C.ar   76  PHE76      -0.0003
     47  CZ        20.7930    1.5740   61.5210 C.ar   76  PHE76      -0.0000
     48  N         24.9950   -1.0740   66.3790 N.am   77  GLU77      -0.1965
     49  CA        26.3280   -1.2340   66.9820 C.3    77  GLU77       0.1733
     50  C         27.0880    0.0830   66.8610 C.2    77  GLU77       0.2616
     51  O         26.9980    0.8030   65.8470 O.2    77  GLU77      -0.2715
     52  CB        27.1430   -2.3750   66.3420 C.3    77  GLU77       0.0429
     53  CG        27.8700   -2.0290   65.0640 C.3    77  GLU77       0.1163
     54  CD        28.7810   -3.1300   64.5230 C.2    77  GLU77       0.3649
     55  OE1       29.8920   -3.3140   65.0370 O.co2  77  GLU77      -0.2457
     56  OE2       28.4040   -3.7830   63.5400 O.co2  77  GLU77      -0.2457
     57  N         27.8450    0.3790   67.9020 N.am   78  PHE78      -0.1960
     58  CA        28.5800    1.6160   67.9910 C.3    78  PHE78       0.1771
     59  C         29.9960    1.4280   67.4940 C.2    78  PHE78       0.2619
     60  O         30.6600    0.4420   67.8470 O.2    78  PHE78      -0.2715
     61  CB        28.6200    2.0890   69.4430 C.3    78  PHE78       0.0574
     62  CG        29.3280    3.3600   69.6050 C.ar   78  PHE78      -0.0200
     63  CD1       28.6720    4.5540   69.3680 C.ar   78  PHE78      -0.0042
     64  CD2       30.6670    3.3780   69.9290 C.ar   78  PHE78      -0.0042
     65  CE1       29.3220    5.7320   69.4850 C.ar   78  PHE78      -0.0003
     66  CE2       31.3300    4.5690   70.0460 C.ar   78  PHE78      -0.0003
     67  CZ        30.6590    5.7560   69.8230 C.ar   78  PHE78      -0.0000
     68  N         30.4380    2.3690   66.6580 N.am   79  LEU79      -0.1977
     69  CA        31.8330    2.4950   66.2700 C.3    79  LEU79       0.1596
     70  C         32.2870    3.9140   66.5840 C.2    79  LEU79       0.2287
     71  O         31.5080    4.8680   66.5070 O.2    79  LEU79      -0.2864
     72  CB        32.0450    2.1690   64.7930 C.3    79  LEU79       0.0297
     73  CG        31.8730    0.6890   64.4080 C.3    79  LEU79       0.0022
     74  CD1       30.4290    0.4170   64.0160 C.3    79  LEU79       0.0001
     75  CD2       32.7730    0.2950   63.2730 C.3    79  LEU79       0.0001
     76  N         32.1650    3.6400   58.8270 N.3   130  LEU130     -0.1245
     77  CA        32.6070    3.6950   60.2140 C.3   130  LEU130      0.1561
     78  C         33.7330    2.7270   60.4170 C.2   130  LEU130      0.2260
     79  O         33.6770    1.6170   59.9030 O.2   130  LEU130     -0.2867
     80  CB        31.4520    3.3570   61.1560 C.3   130  LEU130      0.0270
     81  CG        30.1730    4.2090   61.0500 C.3   130  LEU130      0.0019
     82  CD1       29.2170    3.8140   62.1840 C.3   130  LEU130      0.0001
     83  CD2       30.4540    5.6750   61.0950 C.3   130  LEU130      0.0001
     84  N         27.2550    2.1230   57.3100 N.3   140  ALA140     -0.1231
     85  CA        26.1240    2.5020   58.1550 C.3   140  ALA140      0.1694
     86  C         24.9590    3.0190   57.3110 C.2   140  ALA140      0.2592
     87  O         25.1780    3.5500   56.2360 O.2   140  ALA140     -0.2718
     88  CB        26.5470    3.5640   59.1360 C.3   140  ALA140      0.0304
     89  N         23.7380    2.8880   57.8340 N.am  141  ASP141     -0.1974
     90  CA        22.4760    3.3710   57.1970 C.3   141  ASP141      0.1709
     91  C         22.1170    2.6620   55.8890 C.2   141  ASP141      0.2293
     92  O         21.4120    3.2190   55.0410 O.2   141  ASP141     -0.2864
     93  CB        22.4810    4.9000   56.9860 C.3   141  ASP141      0.1436
     94  CG        22.6160    5.6740   58.2900 C.2   141  ASP141      0.3671
     95  OD1       22.5800    5.0740   59.3940 O.co2 141  ASP141     -0.2456
     96  OD2       22.7770    6.9180   58.3000 O.co2 141  ASP141     -0.2456
@<TRIPOS>BOND
     1    92    91    2
     2    91    90    1
     3    87    86    2
     4    93    90    1
     5    93    94    1
     6    90    89    1
     7    84    85    1
     8    86    89   am
     9    86    85    1
    10    85    88    1
    11    94    96   ar
    12    94    95   ar
    13    76    77    1
    14    30    31    1
    15    79    78    2
    16    77    78    1
    17    77    80    1
    18    36    34    1
    19    33    32    2
    20    31    34    1
    21    31    32    1
    22    81    83    1
    23    81    80    1
    24    81    82    1
    25    34    35    1
    26    29    28    1
    27    47    45   ar
    28    47    46   ar
    29    45    43   ar
    30    46    44   ar
    31    43    42   ar
    32    28    27    1
    33    27    26    1
    34    75    73    1
    35    56    54   ar
    36    44    42   ar
    37    42    41    1
    38    74    73    1
    39    15    13    1
    40    26    25    1
    41    73    72    1
    42    54    55   ar
    43    54    53    1
    44    25    22    1
    45    72    69    1
    46    41    38    1
    47    53    52    1
    48    13    14    1
    49    13    10    1
    50    51    50    2
    51    38    37    1
    52    38    39    1
    53    22    23    1
    54    22    21    1
    55    24    23    2
    56     4     3    2
    57     9    10    1
    58    69    70    1
    59    69    68    1
    60    52    49    1
    61    48    39   am
    62    48    49    1
    63    71    70    2
    64    10    11    1
    65     7     5    1
    66    68    59   am
    67    39    40    2
    68    50    49    1
    69    50    57   am
    70     3     2    1
    71    20    17    1
    72    59    60    2
    73    59    58    1
    74    19    18    2
    75    57    58    1
    76    11    12    2
    77    58    61    1
    78     5     2    1
    79     5     6    1
    80     2     1    1
    81    18    17    1
    82    17    16    1
    83     8     6    1
    84    63    65   ar
    85    63    62   ar
    86    61    62    1
    87    65    67   ar
    88    62    64   ar
    89    67    66   ar
    90    64    66   ar
