@<TRIPOS>MOLECULE
tmp/1wciA00.pdb
 192 185 0 0 0
SMALL
GASTEIGER

@<TRIPOS>ATOM
      1  N         82.5380   10.0840   -3.3840 N.3    80  PHE80      -0.1241
      2  CA        81.3680    9.4490   -2.7830 C.3    80  PHE80       0.1605
      3  C         80.1780   10.3520   -2.8500 C.2    80  PHE80       0.2264
      4  O         80.3280   11.5730   -2.8470 O.2    80  PHE80      -0.2867
      5  CB        81.6630    9.1920   -1.2910 C.3    80  PHE80       0.0534
      6  CG        80.5140    8.6130   -0.5450 C.ar   80  PHE80      -0.0203
      7  CD1       80.1780    7.2560   -0.7030 C.ar   80  PHE80      -0.0042
      8  CD2       79.7650    9.4070    0.3310 C.ar   80  PHE80      -0.0042
      9  CE1       79.1030    6.6900    0.0150 C.ar   80  PHE80      -0.0003
     10  CE2       78.6950    8.8460    1.0640 C.ar   80  PHE80      -0.0003
     11  CZ        78.3860    7.4580    0.9080 C.ar   80  PHE80      -0.0000
     12  N         75.6190   10.4750   -1.7450 N.3    82  MET82      -0.1245
     13  CA        74.3500    9.8130   -1.4140 C.3    82  MET82       0.1570
     14  C         73.2340   10.7460   -1.7630 C.2    82  MET82       0.2261
     15  O         73.2540   11.9260   -1.3660 O.2    82  MET82      -0.2867
     16  CB        74.2440    9.5360    0.0770 C.3    82  MET82       0.0387
     17  CG        75.4160    8.7520    0.6440 C.3    82  MET82       0.0595
     18  SD        75.2280    8.6110    2.4680 S.3    82  MET82      -0.1393
     19  CE        74.6250    6.8990    2.5270 C.3    82  MET82       0.0692
     20  N         71.6490   12.4420   10.2260 N.3   107  GLN107     -0.1231
     21  CA        72.2300   11.1340    9.9550 C.3   107  GLN107      0.1698
     22  C         73.1250   11.2070    8.7460 C.2   107  GLN107      0.2592
     23  O         74.2780   10.7820    8.8410 O.2   107  GLN107     -0.2718
     24  CB        71.1180   10.0910    9.7340 C.3   107  GLN107      0.0381
     25  CG        71.6330    8.7370    9.2260 C.3   107  GLN107      0.0905
     26  CD        70.7120    7.5690    9.5750 C.2   107  GLN107      0.2608
     27  OE1       70.3060    7.4300   10.7160 O.2   107  GLN107     -0.2717
     28  NE2       70.4870    6.6810    8.6230 N.am  107  GLN107     -0.0878
     29  N         72.5610   11.6740    7.6170 N.am  108  TYR108     -0.1962
     30  CA        73.2810   11.8810    6.3190 C.3   108  TYR108      0.1771
     31  C         72.3410   12.1040    5.1640 C.2   108  TYR108      0.2619
     32  O         72.7560   12.5550    4.1070 O.2   108  TYR108     -0.2715
     33  CB        74.3240   10.7980    5.9340 C.3   108  TYR108      0.0574
     34  CG        73.7810    9.3910    5.8960 C.ar  108  TYR108     -0.0198
     35  CD1       72.7140    9.0300    5.0370 C.ar  108  TYR108     -0.0009
     36  CD2       74.2650    8.4420    6.7890 C.ar  108  TYR108     -0.0009
     37  CE1       72.1870    7.7010    5.0440 C.ar  108  TYR108      0.0417
     38  CE2       73.7450    7.1480    6.8110 C.ar  108  TYR108      0.0417
     39  CZ        72.6970    6.7890    5.9560 C.ar  108  TYR108      0.1957
     40  OH        72.2310    5.4960    6.0100 O.3   108  TYR108     -0.2866
     41  N         71.0650   11.8230    5.3630 N.am  109  ARG109     -0.1977
     42  CA        70.1610   11.9020    4.2490 C.3   109  ARG109      0.1597
     43  C         69.1170   12.9430    4.5610 C.2   109  ARG109      0.2287
     44  O         67.9200   12.6300    4.5210 O.2   109  ARG109     -0.2864
     45  CB        69.5310   10.5080    3.9610 C.3   109  ARG109      0.0334
     46  CG        69.3140   10.3550    2.4280 C.3   109  ARG109      0.0492
     47  CD        68.5570    9.0660    2.0650 C.3   109  ARG109      0.2205
     48  NE        69.3030    7.8450    2.4390 N.pl3 109  ARG109     -0.0865
     49  CZ        70.1850    7.2250    1.6260 C.cat 109  ARG109      0.5346
     50  NH1       70.5030    7.7250    0.4220 N.pl3 109  ARG109      0.1354
     51  NH2       70.7830    6.1020    2.0090 N.pl3 109  ARG109      0.1354
     52  N         84.4020   12.4990    4.6420 N.3   141  MET141     -0.1245
     53  CA        83.9060   12.1270    3.3120 C.3   141  MET141      0.1570
     54  C         82.7140   12.9910    2.8980 C.2   141  MET141      0.2261
     55  O         82.0490   13.5810    3.7560 O.2   141  MET141     -0.2867
     56  CB        83.5300   10.6450    3.3310 C.3   141  MET141      0.0387
     57  CG        82.3410   10.3290    4.1740 C.3   141  MET141      0.0595
     58  SD        82.1190    8.5020    4.2970 S.3   141  MET141     -0.1393
     59  CE        82.0470    8.0630    2.6020 C.3   141  MET141      0.0692
     60  N         78.9950   14.8410    4.4740 N.3   144  HIS144     -0.1241
     61  CA        79.0910   15.0160    5.9290 C.3   144  HIS144      0.1621
     62  C         79.0320   16.5010    6.2770 C.2   144  HIS144      0.2264
     63  O         79.9850   17.0770    6.7850 O.2   144  HIS144     -0.2867
     64  CB        80.3260   14.2980    6.4740 C.3   144  HIS144      0.0745
     65  CG        80.1670   12.8050    6.4610 C.ar  144  HIS144      0.0817
     66  ND1       79.7900   12.1380    5.3220 N.ar  144  HIS144     -0.2268
     67  CD2       80.2800   11.8610    7.4370 C.ar  144  HIS144      0.1154
     68  CE1       79.6890   10.8350    5.5830 C.ar  144  HIS144      0.1986
     69  NE2       79.9920   10.6410    6.8590 N.ar  144  HIS144     -0.2212
     70  N         79.5010    9.5720   10.3970 N.3   157  SER157     -0.1203
     71  CA        79.0680    8.3200    9.7700 C.3   157  SER157      0.2005
     72  C         78.4770    7.2950   10.7850 C.2   157  SER157      0.2461
     73  O         77.5550    6.5490   10.4120 O.2   157  SER157     -0.2732
     74  CB        80.2570    7.6310    9.0120 C.3   157  SER157      0.2103
     75  OG        81.0120    8.5530    8.1780 O.3   157  SER157     -0.2182
     76  N         79.0360    7.1530   12.0050 N.am  158  PRO158     -0.2717
     77  CA        78.4990    6.1380   12.9410 C.3   158  PRO158      0.1535
     78  C         77.0000    6.3250   13.2020 C.2   158  PRO158      0.2598
     79  O         76.5700    7.4130   13.5930 O.2   158  PRO158     -0.2715
     80  CB        79.3020    6.3600   14.2130 C.3   158  PRO158      0.0310
     81  CG        80.6180    6.9100   13.7120 C.3   158  PRO158      0.0237
     82  CD        80.2040    7.8770   12.5810 C.3   158  PRO158      0.0939
     83  N         76.2080    5.2750   12.9650 N.am  159  LEU159     -0.1978
     84  CA        74.7960    5.4830   12.9900 C.3   159  LEU159      0.1596
     85  C         74.3030    5.6530   14.4330 C.2   159  LEU159      0.2287
     86  O         74.8110    4.9360   15.3440 O.2   159  LEU159     -0.2864
     87  CB        74.0800    4.2890   12.3640 C.3   159  LEU159      0.0297
     88  CG        74.2810    4.2620   10.8330 C.3   159  LEU159      0.0022
     89  CD1       73.9440    2.8570   10.3380 C.3   159  LEU159      0.0001
     90  CD2       73.4690    5.3290   10.1050 C.3   159  LEU159      0.0001
     91  N         67.4030    7.1290   10.4970 N.3   187  GLY187     -0.1210
     92  CA        66.6350    6.1840    9.6630 C.3   187  GLY187      0.1956
     93  C         66.1240    5.0340   10.5050 C.2   187  GLY187      0.2612
     94  O         66.5140    4.8830   11.6870 O.2   187  GLY187     -0.2717
     95  N         65.3220    4.1620    9.9040 N.am  188  GLU188     -0.1965
     96  CA        64.7530    3.0750   10.6470 C.3   188  GLU188      0.1733
     97  C         65.7760    2.0000   10.9610 C.2   188  GLU188      0.2617
     98  O         65.6300    1.3160   11.9590 O.2   188  GLU188     -0.2715
     99  CB        63.4730    2.4890    9.9750 C.3   188  GLU188      0.0429
    100  CG        63.6630    1.4660    8.8500 C.3   188  GLU188      0.1163
    101  CD        64.5070    1.8820    7.6400 C.2   188  GLU188      0.3649
    102  OE1       64.5680    3.0970    7.2860 O.co2 188  GLU188     -0.2457
    103  OE2       65.1710    0.9760    7.0410 O.co2 188  GLU188     -0.2457
    104  N         66.7930    1.8640   10.1190 N.am  189  GLY189     -0.1940
    105  CA        67.9250    0.9800   10.4140 C.3   189  GLY189      0.2014
    106  C         68.6420    1.5170   11.6680 C.2   189  GLY189      0.2638
    107  O         68.8950    0.7800   12.6240 O.2   189  GLY189     -0.2714
    108  N         69.0110    2.8000   11.6440 N.am  190  ALA190     -0.1977
    109  CA        69.7870    3.3880   12.7710 C.3   190  ALA190      0.1597
    110  C         69.0170    3.1950   14.1220 C.2   190  ALA190      0.2287
    111  O         69.6250    3.0630   15.1810 O.2   190  ALA190     -0.2864
    112  CB        70.0110    4.8840   12.5150 C.3   190  ALA190      0.0319
    113  N         69.9750    0.5910   16.6880 N.3   193  GLU193     -0.1245
    114  CA        71.2390    0.7290   17.4870 C.3   193  GLU193      0.1567
    115  C         70.9060    0.9490   18.9730 C.2   193  GLU193      0.2260
    116  O         69.8800    1.5810   19.3060 O.2   193  GLU193     -0.2867
    117  CB        72.0290    1.9160   16.9520 C.3   193  GLU193      0.0388
    118  CG        72.6920    1.5770   15.5760 C.3   193  GLU193      0.1160
    119  CD        73.8850    0.6460   15.6440 C.2   193  GLU193      0.3649
    120  OE1       74.1450    0.0250   16.7210 O.co2 193  GLU193     -0.2457
    121  OE2       74.5890    0.5010   14.5760 O.co2 193  GLU193     -0.2457
    122  N         63.1090    8.7150    9.6420 N.3   215  ARG215     -0.1245
    123  CA        62.7290    8.5690    8.2150 C.3   215  ARG215      0.1563
    124  C         62.6600    7.0710    7.9510 C.2   215  ARG215      0.2260
    125  O         63.7120    6.4440    7.7680 O.2   215  ARG215     -0.2867
    126  CB        63.7940    9.1250    7.2600 C.3   215  ARG215      0.0307
    127  CG        64.2820   10.5710    7.4910 C.3   215  ARG215      0.0489
    128  CD        65.3910   11.0200    6.4850 C.3   215  ARG215      0.2205
    129  NE        66.6630   10.3840    6.8100 N.pl3 215  ARG215     -0.0865
    130  CZ        67.1380    9.2190    6.3040 C.cat 215  ARG215      0.5346
    131  NH1       66.4890    8.5160    5.3640 N.pl3 215  ARG215      0.1354
    132  NH2       68.3090    8.7650    6.7620 N.pl3 215  ARG215      0.1354
    133  N         62.1810    4.5700    5.4160 N.3   217  ASN217     -0.1240
    134  CA        62.1020    4.4610    3.9570 C.3   217  ASN217      0.1653
    135  C         62.1710    3.0210    3.4560 C.2   217  ASN217      0.2266
    136  O         62.4990    2.7960    2.2820 O.2   217  ASN217     -0.2867
    137  CB        63.2240    5.3270    3.3260 C.3   217  ASN217      0.1155
    138  CG        64.6440    4.7980    3.6970 C.2   217  ASN217      0.2627
    139  OD1       64.7710    3.7210    4.3150 O.2   217  ASN217     -0.2716
    140  ND2       65.6710    5.5430    3.3370 N.am  217  ASN217     -0.0877
    141  N         64.1430    0.3870    3.8130 N.3   219  TYR219     -0.1227
    142  CA        65.4100   -0.3830    3.6810 C.3   219  TYR219      0.1736
    143  C         66.5360    0.2930    4.4160 C.2   219  TYR219      0.2595
    144  O         66.6170    1.5270    4.4510 O.2   219  TYR219     -0.2718
    145  CB        65.8710   -0.4200    2.2210 C.3   219  TYR219      0.0548
    146  CG        65.0110   -1.2570    1.3720 C.ar  219  TYR219     -0.0200
    147  CD1       65.2040   -2.6310    1.2890 C.ar  219  TYR219     -0.0009
    148  CD2       63.9780   -0.6690    0.6480 C.ar  219  TYR219     -0.0009
    149  CE1       64.3530   -3.4300    0.4730 C.ar  219  TYR219      0.0417
    150  CE2       63.1320   -1.4300   -0.1330 C.ar  219  TYR219      0.0417
    151  CZ        63.3210   -2.7900   -0.2310 C.ar  219  TYR219      0.1957
    152  OH        62.4430   -3.4960   -1.0450 O.3   219  TYR219     -0.2866
    153  N         67.4600   -0.5250    4.9190 N.am  220  ALA220     -0.1966
    154  CA        68.7410   -0.0630    5.4780 C.3   220  ALA220      0.1728
    155  C         69.7610   -0.7840    4.5740 C.2   220  ALA220      0.2616
    156  O         70.0230   -2.0010    4.7620 O.2   220  ALA220     -0.2715
    157  CB        68.9270   -0.5180    7.0070 C.3   220  ALA220      0.0334
    158  N         70.3400   -0.0380    3.6280 N.am  221  ILE221     -0.1977
    159  CA        71.0740   -0.6840    2.5140 C.3   221  ILE221      0.1596
    160  C         70.2180   -1.8070    1.8920 C.2   221  ILE221      0.2287
    161  O         69.2000   -1.5260    1.2580 O.2   221  ILE221     -0.2864
    162  CB        72.5060   -1.1960    2.9310 C.3   221  ILE221      0.0276
    163  CG1       73.2000   -0.1270    3.7990 C.3   221  ILE221      0.0022
    164  CG2       73.3060   -1.4770    1.6330 C.3   221  ILE221      0.0022
    165  CD1       74.6810   -0.3300    3.9570 C.3   221  ILE221      0.0001
    166  N         62.8840    4.9380   -0.1330 N.3   282  ARG282     -0.1245
    167  CA        64.1890    5.3540   -0.6470 C.3   282  ARG282      0.1563
    168  C         64.2270    5.0450   -2.1360 C.2   282  ARG282      0.2260
    169  O         64.3810    3.8780   -2.5330 O.2   282  ARG282     -0.2867
    170  CB        65.3020    4.5850    0.0780 C.3   282  ARG282      0.0307
    171  CG        66.6780    5.2750    0.1020 C.3   282  ARG282      0.0489
    172  CD        67.8290    4.2780    0.3070 C.3   282  ARG282      0.2205
    173  NE        67.8120    3.3000   -0.7940 N.pl3 282  ARG282     -0.0865
    174  CZ        68.1480    2.0010   -0.6880 C.cat 282  ARG282      0.5346
    175  NH1       68.5380    1.4850    0.4910 N.pl3 282  ARG282      0.1354
    176  NH2       68.0910    1.2140   -1.7820 N.pl3 282  ARG282      0.1354
    177  N         71.2870    3.1400   -2.1730 N.3   286  HIS286     -0.1226
    178  CA        71.6490    3.5610   -0.8310 C.3   286  HIS286      0.1752
    179  C         72.7040    4.6800   -0.8830 C.2   286  HIS286      0.2596
    180  O         72.6690    5.6390   -0.0920 O.2   286  HIS286     -0.2718
    181  CB        72.2060    2.3840   -0.0440 C.3   286  HIS286      0.0759
    182  CG        72.8790    2.8190    1.2050 C.ar  286  HIS286      0.0818
    183  ND1       72.1710    3.2990    2.2850 N.ar  286  HIS286     -0.2268
    184  CD2       74.1920    2.9500    1.5150 C.ar  286  HIS286      0.1154
    185  CE1       73.0190    3.6690    3.2300 C.ar  286  HIS286      0.1986
    186  NE2       74.2520    3.4500    2.7940 N.ar  286  HIS286     -0.2212
    187  N         73.6750    4.5100   -1.7930 N.am  287  SER287     -0.1952
    188  CA        74.7930    5.4410   -2.0040 C.3   287  SER287      0.1924
    189  C         75.4280    5.0900   -3.3560 C.2   287  SER287      0.2314
    190  O         75.0120    4.1340   -4.0300 O.2   287  SER287     -0.2863
    191  CB        75.8510    5.2620   -0.9250 C.3   287  SER287      0.2116
    192  OG        76.5400    4.0260   -1.1180 O.3   287  SER287     -0.2180
@<TRIPOS>BOND
     1   190   189    2
     2     1     2    1
     3   189   188    1
     4     3     4    2
     5     3     2    1
     6     2     5    1
     7   169   168    2
     8   177   178    1
     9   168   167    1
    10   188   187    1
    11   188   191    1
    12   187   179   am
    13   176   174    1
    14    14    13    1
    15    14    15    2
    16    12    13    1
    17    13    16    1
    18     5     6    1
    19   192   191    1
    20   152   151    1
    21   179   178    1
    22   179   180    2
    23   178   181    1
    24   173   174    2
    25   173   172    1
    26     7     6   ar
    27     7     9   ar
    28   174   175    1
    29   167   166    1
    30   167   170    1
    31     6     8   ar
    32   151   150   ar
    33   151   149   ar
    34   150   148   ar
    35   181   182    1
    36     9    11   ar
    37    16    17    1
    38   170   171    1
    39   171   172    1
    40     8    10   ar
    41    50    49    1
    42   149   147   ar
    43    17    18    1
    44   148   146   ar
    45    11    10   ar
    46   182   184   ar
    47   182   183   ar
    48   161   160    2
    49   147   146   ar
    50   146   145    1
    51   184   186   ar
    52    49    51    1
    53    49    48    2
    54   164   162    1
    55   160   159    1
    56    47    46    1
    57    47    48    1
    58   145   142    1
    59   136   135    2
    60   183   185   ar
    61    46    45    1
    62    18    19    1
    63   159   162    1
    64   159   158    1
    65    59    58    1
    66   186   185   ar
    67    54    53    1
    68    54    55    2
    69   162   163    1
    70    53    56    1
    71    53    52    1
    72   137   138    1
    73   137   134    1
    74    56    57    1
    75   140   138   am
    76   135   134    1
    77   158   155   am
    78   142   141    1
    79   142   143    1
    80   138   139    2
    81   163   165    1
    82   134   133    1
    83    45    42    1
    84    32    31    2
    85    57    58    1
    86    42    43    1
    87    42    41    1
    88   143   144    2
    89   143   153   am
    90    60    61    1
    91    44    43    2
    92   155   156    2
    93   155   154    1
    94   153   154    1
    95    35    37   ar
    96    35    34   ar
    97    37    39   ar
    98    31    41   am
    99    31    30    1
   100    66    68   ar
   101    66    65   ar
   102   131   130    1
   103   154   157    1
   104    68    69   ar
   105    34    33    1
   106    34    36   ar
   107    61    62    1
   108    61    64    1
   109    33    30    1
   110    39    40    1
   111    39    38   ar
   112    62    63    2
   113   130   132    1
   114   130   129    2
   115    30    29    1
   116    65    64    1
   117    65    67   ar
   118   128   129    1
   119   128   127    1
   120    36    38   ar
   121    69    67   ar
   122   103   101   ar
   123   126   127    1
   124   126   123    1
   125   102   101   ar
   126    29    22   am
   127   101   100    1
   128   125   124    2
   129   124   123    1
   130    75    74    1
   131   123   122    1
   132    28    26   am
   133    22    23    2
   134    22    21    1
   135   100    99    1
   136    74    71    1
   137    25    26    1
   138    25    24    1
   139    26    27    2
   140    92    91    1
   141    92    93    1
   142    24    21    1
   143    71    70    1
   144    71    72    1
   145    95    93   am
   146    95    96    1
   147    21    20    1
   148    99    96    1
   149    90    88    1
   150   104   105    1
   151   104    97   am
   152    89    88    1
   153    73    72    2
   154   105   106    1
   155    93    94    2
   156    96    97    1
   157    72    76   am
   158    88    87    1
   159    97    98    2
   160   108   106   am
   161   108   109    1
   162   106   107    2
   163    76    82    1
   164    76    77    1
   165    87    84    1
   166   112   109    1
   167    82    81    1
   168   109   110    1
   169    77    78    1
   170    77    80    1
   171    83    84    1
   172    83    78   am
   173    84    85    1
   174    78    79    2
   175    81    80    1
   176   110   111    2
   177    85    86    2
   178   121   119   ar
   179   118   119    1
   180   118   117    1
   181   119   120   ar
   182   113   114    1
   183   117   114    1
   184   114   115    1
   185   115   116    2
