@<TRIPOS>MOLECULE
tmp/1wcqA00.pdb
 161 151 0 0 0
SMALL
GASTEIGER

@<TRIPOS>ATOM
      1  N        -33.9650   49.1160   83.5360 N.3    22  ARG22      -0.1231
      2  CA       -32.8380   49.6660   82.8050 C.3    22  ARG22       0.1694
      3  C        -32.3890   50.9640   83.4200 C.2    22  ARG22       0.2591
      4  O        -33.0870   51.5550   84.2520 O.2    22  ARG22      -0.2718
      5  CB       -33.1930   49.9500   81.3330 C.3    22  ARG22       0.0321
      6  CG       -33.3550   48.8020   80.3470 C.3    22  ARG22       0.0489
      7  CD       -33.2210   49.4160   78.9330 C.3    22  ARG22       0.2205
      8  NE       -31.8760   50.0010   78.7980 N.pl3  22  ARG22      -0.0865
      9  CZ       -31.4690   50.7800   77.8020 C.cat  22  ARG22       0.5346
     10  NH1      -32.3070   51.1410   76.8530 N.pl3  22  ARG22       0.1354
     11  NH2      -30.2230   51.2510   77.7680 N.pl3  22  ARG22       0.1354
     12  N        -31.2060   51.4060   82.9690 N.am   23  ILE23      -0.1980
     13  CA       -30.6540   52.7350   83.1790 C.3    23  ILE23       0.1595
     14  C        -30.0240   52.9320   84.5520 C.2    23  ILE23       0.2287
     15  O        -30.6540   53.4590   85.4380 O.2    23  ILE23      -0.2864
     16  CB       -31.6190   53.9390   82.8550 C.3    23  ILE23       0.0276
     17  CG1      -32.5040   53.7000   81.5840 C.3    23  ILE23       0.0022
     18  CG2      -30.7140   55.2040   82.7990 C.3    23  ILE23       0.0022
     19  CD1      -31.7410   53.2940   80.2300 C.3    23  ILE23       0.0001
     20  N        -39.7340   49.9090   84.3980 N.3    41  ARG41      -0.1245
     21  CA       -40.4250   50.2440   83.1350 C.3    41  ARG41       0.1563
     22  C        -41.6230   49.3210   82.9320 C.2    41  ARG41       0.2260
     23  O        -41.4770   48.2100   82.4020 O.2    41  ARG41      -0.2867
     24  CB       -39.4470   50.1380   81.9470 C.3    41  ARG41       0.0307
     25  CG       -38.3080   51.1470   82.0900 C.3    41  ARG41       0.0489
     26  CD       -37.1990   51.0280   81.0930 C.3    41  ARG41       0.2205
     27  NE       -36.4980   52.3070   81.0520 N.pl3  41  ARG41      -0.0865
     28  CZ       -35.9150   52.8150   79.9750 C.cat  41  ARG41       0.5346
     29  NH1      -35.8730   52.1270   78.8570 N.pl3  41  ARG41       0.1354
     30  NH2      -35.4030   54.0390   80.0230 N.pl3  41  ARG41       0.1354
     31  N        -38.3750   53.7440   77.1000 N.3    46  ASP46      -0.1225
     32  CA       -37.9410   55.0140   77.6180 C.3    46  ASP46       0.1805
     33  C        -39.1460   56.0030   77.7240 C.2    46  ASP46       0.2597
     34  O        -40.2710   55.6420   77.4170 O.2    46  ASP46      -0.2718
     35  CB       -36.9100   55.6480   76.6560 C.3    46  ASP46       0.1424
     36  CG       -35.8560   54.6500   76.0570 C.2    46  ASP46       0.3668
     37  OD1      -35.3400   53.7270   76.7110 O.co2  46  ASP46      -0.2456
     38  OD2      -35.4970   54.8330   74.8780 O.co2  46  ASP46      -0.2456
     39  N        -38.9300   57.2260   78.2100 N.am   47  ALA47      -0.1979
     40  CA       -39.9740   58.2260   78.2910 C.3    47  ALA47       0.1597
     41  C        -40.5750   58.3510   76.8790 C.2    47  ALA47       0.2287
     42  O        -39.8190   58.3260   75.8760 O.2    47  ALA47      -0.2864
     43  CB       -39.4040   59.6430   78.7990 C.3    47  ALA47       0.0319
     44  N        -37.6940   58.7760   84.8900 N.3    84  SER84      -0.1202
     45  CA       -36.8310   57.8750   84.1290 C.3    84  SER84       0.2020
     46  C        -35.3910   58.4690   83.9270 C.2    84  SER84       0.2618
     47  O        -35.2220   59.6840   83.9060 O.2    84  SER84      -0.2717
     48  CB       -37.5940   57.6210   82.8060 C.3    84  SER84       0.2103
     49  OG       -36.9740   56.6590   81.9800 O.3    84  SER84      -0.2182
     50  N        -34.3640   57.6110   83.7930 N.am   85  ASP85      -0.1973
     51  CA       -32.9340   58.0250   83.5590 C.3    85  ASP85       0.1709
     52  C        -32.2530   58.7480   84.7540 C.2    85  ASP85       0.2293
     53  O        -32.0370   59.9940   84.7160 O.2    85  ASP85      -0.2864
     54  CB       -32.8360   58.8640   82.2830 C.3    85  ASP85       0.1436
     55  CG       -32.9260   58.0140   81.0230 C.2    85  ASP85       0.3671
     56  OD1      -33.5720   56.9340   81.0690 O.co2  85  ASP85      -0.2456
     57  OD2      -32.3380   58.4110   79.9930 O.co2  85  ASP85      -0.2456
     58  N        -35.9060   62.4320   84.3980 N.3   102  VAL102     -0.1245
     59  CA       -36.9460   63.1270   83.6550 C.3   102  VAL102      0.1561
     60  C        -38.2540   63.0410   84.4040 C.2   102  VAL102      0.2260
     61  O        -38.4190   62.1670   85.2560 O.2   102  VAL102     -0.2867
     62  CB       -37.0670   62.7180   82.1780 C.3   102  VAL102      0.0252
     63  CG1      -35.7070   62.6500   81.5690 C.3   102  VAL102      0.0019
     64  CG2      -37.7840   61.3520   82.0180 C.3   102  VAL102      0.0019
     65  N        -38.1010   62.5390   74.8940 N.3   109  PHE109     -0.1241
     66  CA       -37.0370   63.4400   74.5040 C.3   109  PHE109      0.1605
     67  C        -37.2730   63.9710   73.0470 C.2   109  PHE109      0.2264
     68  O        -37.3250   65.2170   72.8010 O.2   109  PHE109     -0.2867
     69  CB       -35.7010   62.6810   74.6570 C.3   109  PHE109      0.0534
     70  CG       -34.4960   63.4610   74.2360 C.ar  109  PHE109     -0.0203
     71  CD1      -34.1970   64.6860   74.8400 C.ar  109  PHE109     -0.0042
     72  CD2      -33.6570   62.9670   73.2560 C.ar  109  PHE109     -0.0042
     73  CE1      -33.0970   65.4130   74.4600 C.ar  109  PHE109     -0.0003
     74  CE2      -32.5290   63.7090   72.8540 C.ar  109  PHE109     -0.0003
     75  CZ       -32.2580   64.9270   73.4630 C.ar  109  PHE109     -0.0000
     76  N        -40.8650   67.5840   78.1790 N.3   124  LEU124     -0.1245
     77  CA       -40.0800   66.6320   78.9650 C.3   124  LEU124      0.1561
     78  C        -39.3320   67.4500   80.0400 C.2   124  LEU124      0.2260
     79  O        -38.3480   68.2220   79.7670 O.2   124  LEU124     -0.2867
     80  CB       -39.1060   65.8440   78.0710 C.3   124  LEU124      0.0270
     81  CG       -38.2380   64.8210   78.8410 C.3   124  LEU124      0.0019
     82  CD1      -39.0800   63.6780   79.3830 C.3   124  LEU124      0.0001
     83  CD2      -37.1420   64.2600   77.9210 C.3   124  LEU124      0.0001
     84  N        -32.5840   66.0580   78.7820 N.3   157  PHE157     -0.1241
     85  CA       -32.5370   65.0990   79.8990 C.3   157  PHE157      0.1605
     86  C        -31.1540   65.0030   80.4670 C.2   157  PHE157      0.2264
     87  O        -30.1870   65.2090   79.7500 O.2   157  PHE157     -0.2867
     88  CB       -33.0550   63.7150   79.4780 C.3   157  PHE157      0.0534
     89  CG       -32.2130   63.0010   78.4530 C.ar  157  PHE157     -0.0203
     90  CD1      -31.5560   61.8030   78.7920 C.ar  157  PHE157     -0.0042
     91  CD2      -32.1260   63.4750   77.1370 C.ar  157  PHE157     -0.0042
     92  CE1      -30.8020   61.0840   77.8390 C.ar  157  PHE157     -0.0003
     93  CE2      -31.3750   62.7620   76.1600 C.ar  157  PHE157     -0.0003
     94  CZ       -30.7110   61.5450   76.5300 C.ar  157  PHE157     -0.0000
     95  N        -28.6540   68.1700   68.6890 N.3   188  PHE188     -0.1241
     96  CA       -28.5340   67.6500   70.0680 C.3   188  PHE188      0.1605
     97  C        -27.2220   68.2510   70.5700 C.2   188  PHE188      0.2264
     98  O        -26.1850   68.0870   69.8880 O.2   188  PHE188     -0.2867
     99  CB       -28.3840   66.1150   70.0930 C.3   188  PHE188      0.0534
    100  CG       -29.6520   65.3340   69.7260 C.ar  188  PHE188     -0.0203
    101  CD1      -30.7580   65.9580   69.1340 C.ar  188  PHE188     -0.0042
    102  CD2      -29.7130   63.9410   69.9550 C.ar  188  PHE188     -0.0042
    103  CE1      -31.8940   65.2210   68.7960 C.ar  188  PHE188     -0.0003
    104  CE2      -30.8450   63.1980   69.6000 C.ar  188  PHE188     -0.0003
    105  CZ       -31.9320   63.8350   69.0310 C.ar  188  PHE188     -0.0000
    106  N        -25.0690   63.7670   72.7710 N.3   213  ASP213     -0.1225
    107  CA       -26.0490   62.9320   73.3600 C.3   213  ASP213      0.1805
    108  C        -25.5940   62.7770   74.7970 C.2   213  ASP213      0.2597
    109  O        -24.7720   63.5420   75.2300 O.2   213  ASP213     -0.2718
    110  CB       -26.0990   61.6000   72.6310 C.3   213  ASP213      0.1424
    111  CG       -27.5130   60.9650   72.6910 C.2   213  ASP213      0.3668
    112  OD1      -27.9760   60.7020   73.8230 O.co2 213  ASP213     -0.2456
    113  OD2      -28.1380   60.7890   71.6150 O.co2 213  ASP213     -0.2456
    114  N        -26.1480   61.8470   75.5560 N.am  214  GLU214     -0.1979
    115  CA       -25.6670   61.5830   76.9330 C.3   214  GLU214      0.1602
    116  C        -24.1810   61.7570   77.0990 C.2   214  GLU214      0.2287
    117  O        -23.4080   61.0380   76.4690 O.2   214  GLU214     -0.2864
    118  CB       -25.9750   60.1160   77.2860 C.3   214  GLU214      0.0415
    119  CG       -27.5380   59.8010   77.3760 C.3   214  GLU214      0.1163
    120  CD       -27.8430   58.2770   77.3400 C.2   214  GLU214      0.3649
    121  OE1      -27.1150   57.5380   76.6280 O.co2 214  GLU214     -0.2457
    122  OE2      -28.7800   57.8280   78.0360 O.co2 214  GLU214     -0.2457
    123  N        -21.4720   60.4080   74.1920 N.3   230  ARG230     -0.1245
    124  CA       -22.0690   59.5440   73.1940 C.3   230  ARG230      0.1563
    125  C        -22.2680   60.3940   71.9350 C.2   230  ARG230      0.2260
    126  O        -22.6730   61.5530   72.0190 O.2   230  ARG230     -0.2867
    127  CB       -23.4520   59.0470   73.7690 C.3   230  ARG230      0.0307
    128  CG       -24.4910   58.3800   72.7910 C.3   230  ARG230      0.0489
    129  CD       -25.7330   57.9230   73.5410 C.3   230  ARG230      0.2205
    130  NE       -26.7870   57.4470   72.6200 N.pl3 230  ARG230     -0.0865
    131  CZ       -27.7750   56.6340   72.9730 C.cat 230  ARG230      0.5346
    132  NH1      -27.8710   56.1910   74.2320 N.pl3 230  ARG230      0.1354
    133  NH2      -28.6820   56.2770   72.0720 N.pl3 230  ARG230      0.1354
    134  N        -24.6090   60.9280   68.8980 N.3   232  SER232     -0.1217
    135  CA       -25.9060   60.6530   68.2640 C.3   232  SER232      0.1889
    136  C        -25.7940   60.6760   66.7390 C.2   232  SER232      0.2288
    137  O        -26.6700   60.1560   66.0570 O.2   232  SER232     -0.2866
    138  CB       -26.9740   61.6180   68.7630 C.3   232  SER232      0.2089
    139  OG       -26.6560   63.0150   68.4680 O.3   232  SER232     -0.2183
    140  N        -23.6370   46.6580   71.3790 N.3   296  ARG296     -0.1245
    141  CA       -23.5360   46.9210   72.8080 C.3   296  ARG296      0.1563
    142  C        -23.1030   45.6230   73.4890 C.2   296  ARG296      0.2260
    143  O        -23.9000   44.8250   74.0130 O.2   296  ARG296     -0.2867
    144  CB       -24.8590   47.4880   73.3720 C.3   296  ARG296      0.0307
    145  CG       -25.1620   48.9220   72.9360 C.3   296  ARG296      0.0489
    146  CD       -26.6420   49.3310   73.2900 C.3   296  ARG296      0.2205
    147  NE       -26.9180   50.7020   72.8820 N.pl3 296  ARG296     -0.0865
    148  CZ       -27.8440   51.4910   73.4010 C.cat 296  ARG296      0.5346
    149  NH1      -28.6520   51.0570   74.3740 N.pl3 296  ARG296      0.1354
    150  NH2      -27.9360   52.7360   72.9540 N.pl3 296  ARG296      0.1354
    151  N        -25.6530   50.1690   79.0490 N.3   324  PHE324     -0.1241
    152  CA       -25.2310   51.2730   79.9380 C.3   324  PHE324      0.1605
    153  C        -24.3990   50.7240   81.1400 C.2   324  PHE324      0.2264
    154  O        -24.6580   49.6290   81.6580 O.2   324  PHE324     -0.2867
    155  CB       -26.4790   52.0100   80.4690 C.3   324  PHE324      0.0534
    156  CG       -27.1750   52.9370   79.4640 C.ar  324  PHE324     -0.0203
    157  CD1      -27.1390   52.7090   78.0860 C.ar  324  PHE324     -0.0042
    158  CD2      -27.9490   54.0010   79.9430 C.ar  324  PHE324     -0.0042
    159  CE1      -27.8050   53.5720   77.1890 C.ar  324  PHE324     -0.0003
    160  CE2      -28.6030   54.8670   79.0940 C.ar  324  PHE324     -0.0003
    161  CZ       -28.5420   54.6690   77.6970 C.ar  324  PHE324     -0.0000
@<TRIPOS>BOND
     1   137   136    2
     2   136   135    1
     3   135   138    1
     4   135   134    1
     5   139   138    1
     6    95    96    1
     7   103   105   ar
     8   103   101   ar
     9   105   104   ar
    10   101   100   ar
    11   104   102   ar
    12   100   102   ar
    13   100    99    1
    14    98    97    2
    15    96    99    1
    16    96    97    1
    17   140   141    1
    18   113   111   ar
    19   125   126    2
    20   125   124    1
    21   133   131    1
    22   130   131    2
    23   130   129    1
    24   110   111    1
    25   110   107    1
    26   111   112   ar
    27   106   107    1
    28   128   129    1
    29   128   127    1
    30    68    67    2
    31   141   144    1
    32   141   142    1
    33    74    72   ar
    34    74    75   ar
    35   147   146    1
    36   147   148    2
    37   145   146    1
    38   145   144    1
    39   150   148    1
    40   131   132    1
    41    67    66    1
    42   124   127    1
    43   124   123    1
    44    72    70   ar
    45   107   108    1
    46   148   149    1
    47    75    73   ar
    48   142   143    2
    49    70    69    1
    50    70    71   ar
    51    73    71   ar
    52    66    69    1
    53    66    65    1
    54   108   109    2
    55   108   114   am
    56    38    36   ar
    57   114   115    1
    58    42    41    2
    59    36    35    1
    60    36    37   ar
    61    93    94   ar
    62    93    91   ar
    63   117   116    2
    64    94    92   ar
    65   121   120   ar
    66    35    32    1
    67    10     9    1
    68    41    40    1
    69   115   116    1
    70   115   118    1
    71    31    32    1
    72    91    89   ar
    73   159   161   ar
    74   159   157   ar
    75   118   119    1
    76   120   119    1
    77   120   122   ar
    78    34    33    2
    79    32    33    1
    80   161   160   ar
    81    33    39   am
    82    11     9    1
    83     9     8    2
    84    92    90   ar
    85    83    81    1
    86    80    81    1
    87    80    77    1
    88   157   156   ar
    89    76    77    1
    90    39    40    1
    91    40    43    1
    92    89    90   ar
    93    89    88    1
    94    84    85    1
    95     8     7    1
    96    81    82    1
    97    29    28    1
    98     7     6    1
    99    77    78    1
   100   151   152    1
   101   160   158   ar
   102   156   158   ar
   103   156   155    1
   104    88    85    1
   105    87    86    2
   106    79    78    2
   107    85    86    1
   108   152   155    1
   109   152   153    1
   110    28    30    1
   111    28    27    2
   112    57    55   ar
   113    19    17    1
   114     6     5    1
   115    55    56   ar
   116    55    54    1
   117    27    26    1
   118    26    25    1
   119   153   154    2
   120     5     2    1
   121    63    62    1
   122    17    16    1
   123    24    25    1
   124    24    21    1
   125    49    48    1
   126    64    62    1
   127    62    59    1
   128    54    51    1
   129    23    22    2
   130    18    16    1
   131     2     3    1
   132     2     1    1
   133    48    45    1
   134    16    13    1
   135    22    21    1
   136    12    13    1
   137    12     3   am
   138    21    20    1
   139    13    14    1
   140     3     4    2
   141    51    50    1
   142    51    52    1
   143    59    58    1
   144    59    60    1
   145    50    46   am
   146    47    46    2
   147    46    45    1
   148    45    44    1
   149    60    61    2
   150    14    15    2
   151    53    52    2
