@<TRIPOS>MOLECULE
tmp/1wd3A00.pdb
 86 82 0 0 0
SMALL
GASTEIGER

@<TRIPOS>ATOM
      1  N         25.3820    6.6670    7.1160 N.3   155  TYR155     -0.1241
      2  CA        26.2340    7.7220    6.5840 C.3   155  TYR155      0.1605
      3  C         26.6870    8.6330    7.7140 C.2   155  TYR155      0.2264
      4  O         26.2490    8.4870    8.8500 O.2   155  TYR155     -0.2867
      5  CB        25.4180    8.5580    5.5920 C.3   155  TYR155      0.0534
      6  CG        24.2930    9.3440    6.2600 C.ar  155  TYR155     -0.0201
      7  CD1       24.5190   10.6200    6.7810 C.ar  155  TYR155     -0.0009
      8  CD2       23.0260    8.7810    6.4360 C.ar  155  TYR155     -0.0009
      9  CE1       23.5160   11.3170    7.4650 C.ar  155  TYR155      0.0417
     10  CE2       22.0120    9.4680    7.1220 C.ar  155  TYR155      0.0417
     11  CZ        22.2690   10.7330    7.6340 C.ar  155  TYR155      0.1957
     12  OH        21.2880   11.4090    8.3270 O.3   155  TYR155     -0.2866
     13  N         29.0100   12.7710    8.3540 N.3   157  ASP157     -0.1239
     14  CA        29.3780   14.0480    7.7510 C.3   157  ASP157      0.1674
     15  C         30.8750   14.2480    7.5340 C.2   157  ASP157      0.2266
     16  O         31.3280   15.3750    7.3110 O.2   157  ASP157     -0.2867
     17  CB        28.8410   15.1930    8.6130 C.3   157  ASP157      0.1410
     18  CG        29.2650   15.0720   10.0620 C.2   157  ASP157      0.3668
     19  OD1       30.2310   14.3290   10.3370 O.co2 157  ASP157     -0.2456
     20  OD2       28.6390   15.7230   10.9270 O.co2 157  ASP157     -0.2456
     21  N         26.0710   13.6100    4.8890 N.3   185  ASN185     -0.1240
     22  CA        25.6010   14.9570    5.1840 C.3   185  ASN185      0.1653
     23  C         26.7150   15.9360    5.5200 C.2   185  ASN185      0.2266
     24  O         26.5780   16.7850    6.3940 O.2   185  ASN185     -0.2867
     25  CB        24.5380   14.9510    6.2920 C.3   185  ASN185      0.1155
     26  CG        25.1180   14.7310    7.6680 C.2   185  ASN185      0.2627
     27  OD1       25.8060   13.7360    7.9150 O.2   185  ASN185     -0.2716
     28  ND2       24.8180   15.6820    8.6280 N.am  185  ASN185     -0.0877
     29  N         28.7970   19.1570    5.1500 N.3   187  THR187     -0.1218
     30  CA        28.3830   20.4830    4.7030 C.3   187  THR187      0.1862
     31  C         29.6160   21.3670    4.5440 C.2   187  THR187      0.2287
     32  O         29.5060   22.5800    4.3530 O.2   187  THR187     -0.2866
     33  CB        27.4110   21.1590    5.6970 C.3   187  THR187      0.1770
     34  OG1       28.0750   21.3730    6.9470 O.3   187  THR187     -0.2211
     35  CG2       26.1820   20.2900    5.9150 C.3   187  THR187      0.0375
     36  N         18.0020   17.9420    6.4620 N.3   195  ASP195     -0.1239
     37  CA        19.0540   17.4150    7.3220 C.3   195  ASP195      0.1674
     38  C         19.9890   16.4360    6.6170 C.2   195  ASP195      0.2266
     39  O         20.9980   16.0220    7.1900 O.2   195  ASP195     -0.2867
     40  CB        18.4390   16.7140    8.5380 C.3   195  ASP195      0.1410
     41  CG        17.4750   17.6010    9.3040 C.2   195  ASP195      0.3668
     42  OD1       17.7700   18.8030    9.4660 O.co2 195  ASP195     -0.2456
     43  OD2       16.4280   17.0880    9.7560 O.co2 195  ASP195     -0.2456
     44  N         22.7260   13.7050    1.4090 N.3   198  TRP198     -0.1241
     45  CA        22.5160   14.1640    0.0410 C.3   198  TRP198      0.1605
     46  C         23.4200   13.4280   -0.9290 C.2   198  TRP198      0.2264
     47  O         24.5460   13.0660   -0.5870 O.2   198  TRP198     -0.2867
     48  CB        22.8440   15.6520   -0.0950 C.3   198  TRP198      0.0550
     49  CG        22.1580   16.5230    0.8920 C.ar  198  TRP198      0.0003
     50  CD1       20.8490   16.9110    0.8780 C.ar  198  TRP198      0.0946
     51  CD2       22.7380   17.0910    2.0710 C.ar  198  TRP198      0.0152
     52  NE1       20.5770   17.6860    1.9820 N.ar  198  TRP198     -0.2442
     53  CE2       21.7190   17.8110    2.7310 C.ar  198  TRP198      0.0810
     54  CE3       24.0230   17.0590    2.6350 C.ar  198  TRP198      0.0012
     55  CZ2       21.9420   18.4940    3.9340 C.ar  198  TRP198      0.0191
     56  CZ3       24.2460   17.7390    3.8310 C.ar  198  TRP198      0.0001
     57  CH2       23.2070   18.4460    4.4670 C.ar  198  TRP198      0.0015
     58  N         21.4380   11.2900   23.2930 N.3   411  GLY411     -0.1210
     59  CA        20.3890   11.3310   22.2900 C.3   411  GLY411      0.1956
     60  C         20.8560   11.6030   20.8710 C.2   411  GLY411      0.2613
     61  O         20.0330   11.7400   19.9650 O.2   411  GLY411     -0.2717
     62  N         22.1660   11.6770   20.6680 N.am  412  THR412     -0.1938
     63  CA        22.7090   11.9390   19.3400 C.3   412  THR412      0.2028
     64  C         22.8690   10.6620   18.5250 C.2   412  THR412      0.2642
     65  O         23.0340    9.5700   19.0730 O.2   412  THR412     -0.2714
     66  CB        24.0910   12.6130   19.4060 C.3   412  THR412      0.1808
     67  OG1       25.0520   11.6840   19.9270 O.3   412  THR412     -0.2208
     68  CG2       24.0410   13.8490   20.2920 C.3   412  THR412      0.0379
     69  N         22.8200   10.8200   17.2080 N.am  413  LYS413     -0.1963
     70  CA        22.9800    9.7090   16.2830 C.3   413  LYS413      0.1728
     71  C         24.3080    9.0050   16.5420 C.2   413  LYS413      0.2616
     72  O         24.3770    7.7740   16.5520 O.2   413  LYS413     -0.2715
     73  CB        22.9490   10.2330   14.8450 C.3   413  LYS413      0.0311
     74  CG        23.4640    9.2540   13.8000 C.3   413  LYS413      0.0038
     75  CD        23.4480    9.8820   12.4160 C.3   413  LYS413      0.0206
     76  CE        24.1100    8.9750   11.3950 C.3   413  LYS413      0.1093
     77  NZ        24.0100    9.5280   10.0260 N.3   413  LYS413     -0.1314
     78  N         25.3620    9.7890   16.7540 N.am  414  GLN414     -0.1977
     79  CA        26.6800    9.2200   16.9920 C.3   414  GLN414      0.1601
     80  C         26.6920    8.3140   18.2200 C.2   414  GLN414      0.2287
     81  O         27.2280    7.2070   18.1690 O.2   414  GLN414     -0.2864
     82  CB        27.7280   10.3210   17.1540 C.3   414  GLN414      0.0394
     83  CG        29.1590    9.7980   17.1230 C.3   414  GLN414      0.0908
     84  CD        29.4710    9.0490   15.8360 C.2   414  GLN414      0.2608
     85  OE1       29.3290    9.5910   14.7400 O.2   414  GLN414     -0.2717
     86  NE2       29.9000    7.7970   15.9640 N.am  414  GLN414     -0.0878
@<TRIPOS>BOND
     1    46    47    2
     2    46    45    1
     3    48    45    1
     4    48    49    1
     5    45    44    1
     6    50    49   ar
     7    50    52   ar
     8    49    51   ar
     9    52    53   ar
    10    51    54   ar
    11    51    53   ar
    12    54    56   ar
    13    53    55   ar
    14    56    57   ar
    15    55    57   ar
    16    32    31    2
    17    31    30    1
    18    30    29    1
    19    30    33    1
    20    21    22    1
    21    22    23    1
    22    22    25    1
    23    23    24    2
    24     5     6    1
    25     5     2    1
    26    33    35    1
    27    33    34    1
    28     6     8   ar
    29     6     7   ar
    30    25    26    1
    31     8    10   ar
    32    36    37    1
    33     2     1    1
    34     2     3    1
    35    38    39    2
    36    38    37    1
    37     7     9   ar
    38    10    11   ar
    39    16    15    2
    40    37    40    1
    41     9    11   ar
    42    15    14    1
    43    11    12    1
    44    26    27    2
    45    26    28   am
    46     3     4    2
    47    14    13    1
    48    14    17    1
    49    40    41    1
    50    17    18    1
    51    41    42   ar
    52    41    43   ar
    53    77    76    1
    54    18    19   ar
    55    18    20   ar
    56    76    75    1
    57    75    74    1
    58    74    73    1
    59    85    84    2
    60    73    70    1
    61    84    86   am
    62    84    83    1
    63    70    71    1
    64    70    69    1
    65    71    72    2
    66    71    78   am
    67    78    79    1
    68    79    82    1
    69    79    80    1
    70    83    82    1
    71    69    64   am
    72    81    80    2
    73    64    65    2
    74    64    63    1
    75    63    66    1
    76    63    62    1
    77    66    67    1
    78    66    68    1
    79    61    60    2
    80    62    60   am
    81    60    59    1
    82    59    58    1
