@<TRIPOS>MOLECULE
tmp/1wd4A01.pdb
 116 111 0 0 0
SMALL
GASTEIGER

@<TRIPOS>ATOM
      1  N         46.3150   11.4730    2.5660 N.3    92  PHE92      -0.1241
      2  CA        46.0440   11.0440    3.9360 C.3    92  PHE92       0.1605
      3  C         46.3350    9.5540    4.0410 C.2    92  PHE92       0.2264
      4  O         46.1620    8.8120    3.0720 O.2    92  PHE92      -0.2867
      5  CB        44.5730   11.2740    4.3000 C.3    92  PHE92       0.0534
      6  CG        44.2100   12.7150    4.4980 C.ar   92  PHE92      -0.0203
      7  CD1       44.5710   13.3830    5.6620 C.ar   92  PHE92      -0.0042
      8  CD2       43.5140   13.4090    3.5180 C.ar   92  PHE92      -0.0042
      9  CE1       44.2420   14.7230    5.8480 C.ar   92  PHE92      -0.0003
     10  CE2       43.1810   14.7480    3.6920 C.ar   92  PHE92      -0.0003
     11  CZ        43.5460   15.4070    4.8600 C.ar   92  PHE92      -0.0000
     12  N         34.7160   13.5630    5.0910 N.3   159  CYS159     -0.1221
     13  CA        35.1700   13.3230    3.7250 C.3   159  CYS159      0.1808
     14  C         35.8030   11.9430    3.5730 C.2   159  CYS159      0.2601
     15  O         36.6870   11.5880    4.3500 O.2   159  CYS159     -0.2717
     16  CB        36.1920   14.3850    3.3270 C.3   159  CYS159      0.0970
     17  SG        36.7040   14.2840    1.5860 S.3   159  CYS159     -0.0800
     18  N         35.3490   11.1460    2.6050 N.am  160  CYS160     -0.1970
     19  CA        34.2650   11.4700    1.6730 C.3   160  CYS160      0.1712
     20  C         33.7670   10.1250    1.1610 C.2   160  CYS160      0.2296
     21  O         34.5750    9.2930    0.7520 O.2   160  CYS160     -0.2864
     22  CB        34.7730   12.2630    0.4590 C.3   160  CYS160      0.0983
     23  SG        34.9320   14.0710    0.6200 S.3   160  CYS160     -0.0798
     24  N         45.4080   15.2080   -3.8770 N.3   172  ASP172     -0.1239
     25  CA        44.5520   16.2900   -4.3420 C.3   172  ASP172      0.1674
     26  C         45.3550   17.1380   -5.3280 C.2   172  ASP172      0.2266
     27  O         46.1000   18.0280   -4.9220 O.2   172  ASP172     -0.2867
     28  CB        44.1110   17.1350   -3.1390 C.3   172  ASP172      0.1410
     29  CG        43.3410   18.3800   -3.5360 C.2   172  ASP172      0.3668
     30  OD1       43.2030   18.6490   -4.7470 O.co2 172  ASP172     -0.2456
     31  OD2       42.8790   19.0970   -2.6220 O.co2 172  ASP172     -0.2456
     32  N         38.7420   15.3680  -10.4080 N.3   178  MET178     -0.1245
     33  CA        37.8590   14.3380   -9.8700 C.3   178  MET178      0.1570
     34  C         36.4610   14.5060  -10.4500 C.2   178  MET178      0.2261
     35  O         36.1040   15.5790  -10.9320 O.2   178  MET178     -0.2867
     36  CB        37.7310   14.4390   -8.3450 C.3   178  MET178      0.0387
     37  CG        38.9250   13.9930   -7.5330 C.3   178  MET178      0.0595
     38  SD        38.4670   13.9410   -5.7820 S.3   178  MET178     -0.1393
     39  CE        37.4360   12.4780   -5.8000 C.3   178  MET178      0.0692
     40  N         31.8120   21.7040    2.0010 N.3   189  TRP189     -0.1241
     41  CA        31.8310   22.3100    0.6740 C.3   189  TRP189      0.1605
     42  C         30.3990   22.6180    0.2700 C.2   189  TRP189      0.2264
     43  O         29.8190   23.6130    0.7010 O.2   189  TRP189     -0.2867
     44  CB        32.4630   21.3440   -0.3300 C.3   189  TRP189      0.0550
     45  CG        33.9240   21.1040   -0.0840 C.ar  189  TRP189      0.0003
     46  CD1       34.9640   21.8990   -0.4770 C.ar  189  TRP189      0.0946
     47  CD2       34.5060   20.0010    0.6200 C.ar  189  TRP189      0.0152
     48  NE1       36.1580   21.3570   -0.0640 N.ar  189  TRP189     -0.2442
     49  CE2       35.9060   20.1920    0.6130 C.ar  189  TRP189      0.0810
     50  CE3       33.9810   18.8690    1.2580 C.ar  189  TRP189      0.0012
     51  CZ2       36.7900   19.2910    1.2190 C.ar  189  TRP189      0.0191
     52  CZ3       34.8590   17.9730    1.8610 C.ar  189  TRP189      0.0001
     53  CH2       36.2500   18.1900    1.8360 C.ar  189  TRP189      0.0015
     54  N         31.6440   15.0400   -6.5540 N.3   202  ASP202     -0.1239
     55  CA        32.9670   15.4450   -6.1040 C.3   202  ASP202      0.1674
     56  C         33.8140   15.7660   -7.3360 C.2   202  ASP202      0.2266
     57  O         34.1480   14.8730   -8.1210 O.2   202  ASP202     -0.2867
     58  CB        33.6330   14.3100   -5.3170 C.3   202  ASP202      0.1410
     59  CG        34.8410   14.7800   -4.5220 C.2   202  ASP202      0.3668
     60  OD1       35.4870   15.7570   -4.9410 O.co2 202  ASP202     -0.2456
     61  OD2       35.1530   14.1640   -3.4820 O.co2 202  ASP202     -0.2456
     62  N         36.6780   17.5260   -6.9400 N.3   204  GLU204     -0.1231
     63  CA        37.9460   17.8350   -6.2690 C.3   204  GLU204      0.1699
     64  C         37.9180   19.2530   -5.7060 C.2   204  GLU204      0.2592
     65  O         37.5780   20.2070   -6.4070 O.2   204  GLU204     -0.2718
     66  CB        39.1490   17.6470   -7.2050 C.3   204  GLU204      0.0402
     67  CG        40.4950   17.7860   -6.4830 C.3   204  GLU204      0.1161
     68  CD        40.5680   16.9500   -5.2070 C.2   204  GLU204      0.3649
     69  OE1       41.0720   15.8070   -5.2500 O.co2 204  GLU204     -0.2457
     70  OE2       40.1060   17.4400   -4.1570 O.co2 204  GLU204     -0.2457
     71  N         38.2760   19.3760   -4.4310 N.am  205  ASN205     -0.1960
     72  CA        38.2550   20.6570   -3.7250 C.3   205  ASN205      0.1819
     73  C         36.8550   21.2380   -3.7130 C.2   205  ASN205      0.2621
     74  O         36.6830   22.4550   -3.6660 O.2   205  ASN205     -0.2715
     75  CB        39.1860   21.6670   -4.3740 C.3   205  ASN205      0.1195
     76  CG        40.6210   21.4670   -3.9830 C.2   205  ASN205      0.2630
     77  OD1       40.9470   20.6830   -3.0890 O.2   205  ASN205     -0.2716
     78  ND2       41.4940   22.1930   -4.6430 N.am  205  ASN205     -0.0877
     79  N         35.8580   20.3630   -3.7660 N.am  206  ASN206     -0.1958
     80  CA        34.4680   20.7940   -3.7640 C.3   206  ASN206      0.1819
     81  C         33.5230   19.6360   -4.0290 C.2   206  ASN206      0.2621
     82  O         33.7490   18.8180   -4.9300 O.2   206  ASN206     -0.2715
     83  CB        34.2170   21.8480   -4.8550 C.3   206  ASN206      0.1195
     84  CG        34.1690   23.2770   -4.3210 C.2   206  ASN206      0.2630
     85  OD1       34.6240   24.2020   -4.9970 O.2   206  ASN206     -0.2716
     86  ND2       33.6030   23.4680   -3.1280 N.am  206  ASN206     -0.0877
     87  N         32.4730   19.5690   -3.2210 N.am  207  LEU207     -0.1977
     88  CA        31.4240   18.5860   -3.4010 C.3   207  LEU207      0.1596
     89  C         30.3360   19.5360   -3.8820 C.2   207  LEU207      0.2287
     90  O         30.0470   20.5320   -3.2120 O.2   207  LEU207     -0.2864
     91  CB        31.0330   17.9330   -2.0700 C.3   207  LEU207      0.0297
     92  CG        32.1030   17.0300   -1.4370 C.3   207  LEU207      0.0022
     93  CD1       31.5760   16.4390   -0.1370 C.3   207  LEU207      0.0001
     94  CD2       32.4820   15.9190   -2.4120 C.3   207  LEU207      0.0001
     95  N         37.9040    9.7580   -0.4200 N.3   278  GLY278     -0.1210
     96  CA        38.0850   10.9450   -1.2380 C.3   278  GLY278      0.1956
     97  C         39.2760   10.7410   -2.1630 C.2   278  GLY278      0.2612
     98  O         40.0360    9.7880   -1.9980 O.2   278  GLY278     -0.2717
     99  N         39.4490   11.6330   -3.1340 N.am  279  GLY279     -0.1942
    100  CA        40.5570   11.4990   -4.0660 C.3   279  GLY279      0.2014
    101  C         41.9470   11.4630   -3.4490 C.2   279  GLY279      0.2638
    102  O         42.8290   10.7560   -3.9420 O.2   279  GLY279     -0.2714
    103  N         42.1500   12.2290   -2.3790 N.am  280  ASP280     -0.1971
    104  CA        43.4420   12.2870   -1.6980 C.3   280  ASP280      0.1709
    105  C         43.4950   11.2500   -0.5800 C.2   280  ASP280      0.2293
    106  O         44.3650   11.2910    0.2930 O.2   280  ASP280     -0.2864
    107  CB        43.6550   13.6850   -1.1130 C.3   280  ASP280      0.1436
    108  CG        42.5750   14.0740   -0.1230 C.2   280  ASP280      0.3671
    109  OD1       41.6940   13.2340    0.1720 O.co2 280  ASP280     -0.2456
    110  OD2       42.6070   15.2220    0.3650 O.co2 280  ASP280     -0.2456
    111  N         41.0080   10.7490    1.6730 N.3   282  SER282     -0.1217
    112  CA        40.3820   11.1670    2.9240 C.3   282  SER282      0.1889
    113  C         39.5430    9.9430    3.2740 C.2   282  SER282      0.2288
    114  O         38.7780    9.4590    2.4390 O.2   282  SER282     -0.2866
    115  CB        39.4780   12.3810    2.7060 C.3   282  SER282      0.2089
    116  OG        40.2420   13.5560    2.5000 O.3   282  SER282     -0.2183
@<TRIPOS>BOND
     1    35    34    2
     2    34    33    1
     3    32    33    1
     4    33    36    1
     5    36    37    1
     6    57    56    2
     7    37    38    1
     8    56    55    1
     9    66    67    1
    10    66    63    1
    11    62    63    1
    12    54    55    1
    13    67    68    1
    14    65    64    2
    15    63    64    1
    16    55    58    1
    17    39    38    1
    18    64    71   am
    19    26    27    2
    20    26    25    1
    21    58    59    1
    22    69    68   ar
    23    68    70   ar
    24    85    84    2
    25    60    59   ar
    26    82    81    2
    27    83    84    1
    28    83    80    1
    29    30    29   ar
    30    78    76   am
    31    59    61   ar
    32    71    72    1
    33    75    76    1
    34    75    72    1
    35    25    24    1
    36    25    28    1
    37    84    86   am
    38   100   101    1
    39   100    99    1
    40    81    80    1
    41    81    87   am
    42    76    77    2
    43   102   101    2
    44    89    88    1
    45    89    90    2
    46    79    80    1
    47    79    73   am
    48    72    73    1
    49    73    74    2
    50    29    28    1
    51    29    31   ar
    52   101   103   am
    53    88    87    1
    54    88    91    1
    55    99    97   am
    56    94    92    1
    57   103   104    1
    58    97    98    2
    59    97    96    1
    60    91    92    1
    61   104   107    1
    62   104   105    1
    63    92    93    1
    64    96    95    1
    65   107   108    1
    66   105   106    2
    67    46    45   ar
    68    46    48   ar
    69    44    45    1
    70    44    41    1
    71   108   109   ar
    72   108   110   ar
    73    45    47   ar
    74    48    49   ar
    75    42    41    1
    76    42    43    2
    77    22    23    1
    78    22    19    1
    79    49    47   ar
    80    49    51   ar
    81    47    50   ar
    82    23    17    1
    83    41    40    1
    84    21    20    2
    85    20    19    1
    86    51    53   ar
    87    50    52   ar
    88    17    16    1
    89   111   112    1
    90    19    18    1
    91    53    52   ar
    92   114   113    2
    93   116   115    1
    94     1     2    1
    95    18    14   am
    96   115   112    1
    97   112   113    1
    98     4     3    2
    99    16    13    1
   100     8    10   ar
   101     8     6   ar
   102    14    13    1
   103    14    15    2
   104    10    11   ar
   105    13    12    1
   106     2     3    1
   107     2     5    1
   108     5     6    1
   109     6     7   ar
   110    11     9   ar
   111     7     9   ar
