@<TRIPOS>MOLECULE
tmp/1wd4A03.pdb
 90 88 0 0 0
SMALL
GASTEIGER

@<TRIPOS>ATOM
      1  N         36.1410  -18.2440   27.0660 N.3   339  THR339     -0.1218
      2  CA        37.5520  -18.5190   26.8060 C.3   339  THR339      0.1862
      3  C         38.1220  -19.3440   27.9620 C.2   339  THR339      0.2287
      4  O         38.0720  -18.9220   29.1170 O.2   339  THR339     -0.2866
      5  CB        38.3680  -17.2130   26.6810 C.3   339  THR339      0.1770
      6  OG1       37.8830  -16.4460   25.5710 O.3   339  THR339     -0.2211
      7  CG2       39.8530  -17.5250   26.4640 C.3   339  THR339      0.0375
      8  N         38.9790  -18.4560   31.8320 N.3   342  TYR342     -0.1241
      9  CA        38.2970  -17.2090   32.1770 C.3   342  TYR342      0.1605
     10  C         36.7850  -17.4240   32.1760 C.2   342  TYR342      0.2264
     11  O         36.0120  -16.4630   32.1600 O.2   342  TYR342     -0.2867
     12  CB        38.6420  -16.1270   31.1500 C.3   342  TYR342      0.0534
     13  CG        40.1240  -15.8620   30.9890 C.ar  342  TYR342     -0.0201
     14  CD1       40.7940  -14.9900   31.8470 C.ar  342  TYR342     -0.0009
     15  CD2       40.8570  -16.4880   29.9790 C.ar  342  TYR342     -0.0009
     16  CE1       42.1560  -14.7440   31.7040 C.ar  342  TYR342      0.0417
     17  CE2       42.2220  -16.2510   29.8280 C.ar  342  TYR342      0.0417
     18  CZ        42.8630  -15.3750   30.6950 C.ar  342  TYR342      0.1957
     19  OH        44.2060  -15.1210   30.5470 O.3   342  TYR342     -0.2866
     20  N         35.0050   -8.0450   22.3420 N.3   445  ARG445     -0.1231
     21  CA        36.1610   -8.9210   22.5220 C.3   445  ARG445      0.1694
     22  C         36.9130   -8.5660   23.7950 C.2   445  ARG445      0.2592
     23  O         37.2950   -7.4120   23.9880 O.2   445  ARG445     -0.2718
     24  CB        37.0930   -8.7890   21.3020 C.3   445  ARG445      0.0321
     25  CG        38.2300   -9.8150   21.2050 C.3   445  ARG445      0.0489
     26  CD        39.4480   -9.4580   22.0550 C.3   445  ARG445      0.2205
     27  NE        40.4360  -10.5320   22.0050 N.pl3 445  ARG445     -0.0865
     28  CZ        41.2460  -10.7690   20.9760 C.cat 445  ARG445      0.5346
     29  NH1       41.2160   -9.9990   19.8930 N.pl3 445  ARG445      0.1354
     30  NH2       42.0610  -11.8120   21.0120 N.pl3 445  ARG445      0.1354
     31  N         37.1160   -9.5440   24.6720 N.am  446  HIS446     -0.1962
     32  CA        37.8500   -9.2700   25.9010 C.3   446  HIS446      0.1787
     33  C         39.3290   -9.5740   25.6810 C.2   446  HIS446      0.2620
     34  O         39.6950  -10.6320   25.1610 O.2   446  HIS446     -0.2715
     35  CB        37.2790  -10.0750   27.0850 C.3   446  HIS446      0.0785
     36  CG        37.4210  -11.5600   26.9500 C.ar  446  HIS446      0.0821
     37  ND1       38.5520  -12.2410   27.3470 N.ar  446  HIS446     -0.2267
     38  CD2       36.5660  -12.4970   26.4720 C.ar  446  HIS446      0.1154
     39  CE1       38.3870  -13.5330   27.1220 C.ar  446  HIS446      0.1986
     40  NE2       37.1900  -13.7160   26.5910 N.ar  446  HIS446     -0.2212
     41  N         40.1710   -8.6130   26.0470 N.am  447  TYR447     -0.1960
     42  CA        41.6140   -8.7370   25.8960 C.3   447  TYR447      0.1771
     43  C         42.2530   -8.3050   27.2110 C.2   447  TYR447      0.2619
     44  O         42.1910   -7.1370   27.5850 O.2   447  TYR447     -0.2715
     45  CB        42.0980   -7.8410   24.7560 C.3   447  TYR447      0.0574
     46  CG        43.5690   -7.9810   24.4590 C.ar  447  TYR447     -0.0198
     47  CD1       44.0580   -9.0860   23.7650 C.ar  447  TYR447     -0.0009
     48  CD2       44.4770   -7.0210   24.8950 C.ar  447  TYR447     -0.0009
     49  CE1       45.4240   -9.2330   23.5100 C.ar  447  TYR447      0.0417
     50  CE2       45.8430   -7.1570   24.6480 C.ar  447  TYR447      0.0417
     51  CZ        46.3070   -8.2630   23.9570 C.ar  447  TYR447      0.1957
     52  OH        47.6540   -8.3970   23.7140 O.3   447  TYR447     -0.2866
     53  N         42.8650   -9.2560   27.9070 N.am  448  GLU448     -0.1963
     54  CA        43.4820   -8.9910   29.2010 C.3   448  GLU448      0.1733
     55  C         42.4110   -8.4520   30.1480 C.2   448  GLU448      0.2616
     56  O         42.6310   -7.5000   30.8960 O.2   448  GLU448     -0.2715
     57  CB        44.6460   -7.9980   29.0640 C.3   448  GLU448      0.0429
     58  CG        45.6630   -8.4050   27.9950 C.3   448  GLU448      0.1163
     59  CD        46.9950   -7.6800   28.1110 C.2   448  GLU448      0.3649
     60  OE1       47.0150   -6.4810   28.4640 O.co2 448  GLU448     -0.2457
     61  OE2       48.0310   -8.3140   27.8270 O.co2 448  GLU448     -0.2457
     62  N         41.2410   -9.0810   30.0860 N.am  449  ASN449     -0.1972
     63  CA        40.0880   -8.7470   30.9210 C.3   449  ASN449      0.1688
     64  C         39.4290   -7.3920   30.6900 C.2   449  ASN449      0.2292
     65  O         38.6970   -6.9010   31.5530 O.2   449  ASN449     -0.2864
     66  CB        40.4460   -8.8880   32.4020 C.3   449  ASN449      0.1181
     67  CG        40.9580  -10.2660   32.7410 C.2   449  ASN449      0.2629
     68  OD1       40.5150  -11.2620   32.1650 O.2   449  ASN449     -0.2716
     69  ND2       41.8910  -10.3360   33.6860 N.am  449  ASN449     -0.0877
     70  N         45.1190  -14.2600   18.3430 N.3   466  THR466     -0.1203
     71  CA        45.2590  -15.2740   19.3760 C.3   466  THR466      0.1994
     72  C         44.0060  -15.3460   20.2380 C.2   466  THR466      0.2618
     73  O         43.6490  -14.3780   20.9030 O.2   466  THR466     -0.2717
     74  CB        46.4650  -14.9820   20.2880 C.3   466  THR466      0.1784
     75  OG1       47.6700  -15.0150   19.5130 O.3   466  THR466     -0.2211
     76  CG2       46.5550  -16.0220   21.4010 C.3   466  THR466      0.0376
     77  N         43.3400  -16.4960   20.2070 N.am  467  SER467     -0.1951
     78  CA        42.1380  -16.7210   21.0000 C.3   467  SER467      0.1924
     79  C         40.9570  -15.8290   20.6000 C.2   467  SER467      0.2314
     80  O         40.0100  -15.6680   21.3650 O.2   467  SER467     -0.2863
     81  CB        42.4720  -16.5160   22.4840 C.3   467  SER467      0.2116
     82  OG        41.3280  -16.6910   23.2970 O.3   467  SER467     -0.2180
     83  N         37.4880  -15.3810   22.5120 N.3   471  ASP471     -0.1239
     84  CA        37.3330  -14.0660   23.1270 C.3   471  ASP471      0.1674
     85  C         36.1370  -13.2480   22.6340 C.2   471  ASP471      0.2266
     86  O         35.8240  -12.2060   23.2120 O.2   471  ASP471     -0.2867
     87  CB        38.6160  -13.2400   22.9610 C.3   471  ASP471      0.1410
     88  CG        39.8070  -13.8500   23.6840 C.2   471  ASP471      0.3668
     89  OD1       39.5960  -14.6930   24.5850 O.co2 471  ASP471     -0.2456
     90  OD2       40.9550  -13.4760   23.3610 O.co2 471  ASP471     -0.2456
@<TRIPOS>BOND
     1    70    71    1
     2    71    72    1
     3    71    74    1
     4    75    74    1
     5    29    28    1
     6    77    72   am
     7    77    78    1
     8    72    73    2
     9    74    76    1
    10    79    78    1
    11    79    80    2
    12    28    30    1
    13    28    27    2
    14    78    81    1
    15    25    24    1
    16    25    26    1
    17    24    21    1
    18    27    26    1
    19    20    21    1
    20    81    82    1
    21    83    84    1
    22    21    22    1
    23    85    84    1
    24    85    86    2
    25    87    84    1
    26    87    88    1
    27    90    88   ar
    28    49    47   ar
    29    49    51   ar
    30    88    89   ar
    31    52    51    1
    32    47    46   ar
    33    22    23    2
    34    22    31   am
    35    51    50   ar
    36    46    45    1
    37    46    48   ar
    38    50    48   ar
    39    31    32    1
    40    45    42    1
    41    34    33    2
    42     6     5    1
    43    33    32    1
    44    33    41   am
    45    42    41    1
    46    42    43    1
    47    32    35    1
    48     7     5    1
    49    38    40   ar
    50    38    36   ar
    51    40    39   ar
    52     5     2    1
    53     2     1    1
    54     2     3    1
    55    36    35    1
    56    36    37   ar
    57    39    37   ar
    58    43    44    2
    59    43    53   am
    60    61    59   ar
    61    53    54    1
    62     3     4    2
    63    58    59    1
    64    58    57    1
    65    59    60   ar
    66    57    54    1
    67    54    55    1
    68    17    15   ar
    69    17    18   ar
    70    15    13   ar
    71    62    55   am
    72    62    63    1
    73    55    56    2
    74    19    18    1
    75    64    63    1
    76    64    65    2
    77    18    16   ar
    78    63    66    1
    79    13    12    1
    80    13    14   ar
    81    12     9    1
    82    16    14   ar
    83     8     9    1
    84    11    10    2
    85    68    67    2
    86    10     9    1
    87    66    67    1
    88    67    69   am
