@<TRIPOS>MOLECULE
tmp/1wdiA00.pdb
 107 103 0 0 0
SMALL
GASTEIGER

@<TRIPOS>ATOM
      1  N         49.1610   13.7180   46.8300 N.3    60  ASN60      -0.1240
      2  CA        49.9720   12.8220   47.6280 C.3    60  ASN60       0.1653
      3  C         49.1200   12.4140   48.8250 C.2    60  ASN60       0.2266
      4  O         48.4250   13.2380   49.4170 O.2    60  ASN60      -0.2867
      5  CB        51.2590   13.5120   48.0940 C.3    60  ASN60       0.1155
      6  CG        51.1340   14.1220   49.4740 C.2    60  ASN60       0.2627
      7  OD1       51.1010   13.4100   50.4800 O.2    60  ASN60      -0.2716
      8  ND2       51.0630   15.4500   49.5310 N.am   60  ASN60      -0.0877
      9  N         49.1580   19.8590   58.0040 N.3   141  PRO141     -0.2102
     10  CA        48.4230   20.5210   56.9180 C.3   141  PRO141      0.1504
     11  C         49.2600   20.7800   55.6670 C.2   141  PRO141      0.2576
     12  O         50.3980   21.2420   55.7550 O.2   141  PRO141     -0.2718
     13  CB        47.9500   21.8200   57.5680 C.3   141  PRO141      0.0282
     14  CG        47.7780   21.4330   59.0020 C.3   141  PRO141      0.0208
     15  CD        49.0270   20.6240   59.2570 C.3   141  PRO141      0.0893
     16  N         48.6870   20.4840   54.5040 N.am  142  THR142     -0.1939
     17  CA        49.3700   20.6910   53.2300 C.3   142  THR142      0.2028
     18  C         48.3850   21.1910   52.1680 C.2   142  THR142      0.2642
     19  O         47.1870   21.2910   52.4260 O.2   142  THR142     -0.2714
     20  CB        50.0490   19.3900   52.7440 C.3   142  THR142      0.1808
     21  OG1       49.0790   18.3400   52.6610 O.3   142  THR142     -0.2208
     22  CG2       51.1520   18.9720   53.7050 C.3   142  THR142      0.0379
     23  N         48.8910   21.5050   50.9770 N.am  143  ALA143     -0.1963
     24  CA        48.0450   22.0180   49.8960 C.3   143  ALA143      0.1728
     25  C         46.7890   21.1860   49.6570 C.2   143  ALA143      0.2616
     26  O         45.7310   21.7300   49.3540 O.2   143  ALA143     -0.2715
     27  CB        48.8510   22.1200   48.6040 C.3   143  ALA143      0.0334
     28  N         46.9090   19.8690   49.7930 N.am  144  GLY144     -0.1955
     29  CA        45.7660   18.9980   49.5780 C.3   144  GLY144      0.1869
     30  C         44.6160   19.2120   50.5480 C.2   144  GLY144      0.2309
     31  O         43.4850   18.8180   50.2670 O.2   144  GLY144     -0.2863
     32  N         49.5150   18.7870   42.8900 N.3   205  VAL205     -0.1231
     33  CA        48.8520   19.3670   44.0400 C.3   205  VAL205      0.1692
     34  C         49.8630   19.2610   45.1660 C.2   205  VAL205      0.2593
     35  O         49.9850   18.2150   45.8080 O.2   205  VAL205     -0.2718
     36  CB        47.5750   18.6010   44.4260 C.3   205  VAL205      0.0266
     37  CG1       46.9830   19.1980   45.6940 C.3   205  VAL205      0.0020
     38  CG2       46.5700   18.6630   43.2870 C.3   205  VAL205      0.0020
     39  N         50.6070   20.3410   45.3830 N.am  206  GLY206     -0.1942
     40  CA        51.6030   20.3470   46.4320 C.3   206  GLY206      0.2014
     41  C         53.0010   20.0720   45.9190 C.2   206  GLY206      0.2640
     42  O         53.1790   19.3920   44.9160 O.2   206  GLY206     -0.2714
     43  N         53.9930   20.6080   46.6190 N.am  207  THR207     -0.1936
     44  CA        55.3940   20.4380   46.2510 C.3   207  THR207      0.2028
     45  C         55.9250   19.0270   46.5160 C.2   207  THR207      0.2642
     46  O         56.9280   18.6150   45.9400 O.2   207  THR207     -0.2714
     47  CB        56.2660   21.4450   47.0030 C.3   207  THR207      0.1808
     48  OG1       56.0180   21.3290   48.4090 O.3   207  THR207     -0.2208
     49  CG2       55.9430   22.8600   46.5520 C.3   207  THR207      0.0379
     50  N         55.2580   18.2930   47.3950 N.am  208  THR208     -0.1950
     51  CA        55.6710   16.9310   47.6910 C.3   208  THR208      0.1897
     52  C         55.4570   16.1300   46.4170 C.2   208  THR208      0.2313
     53  O         56.3100   15.3390   46.0170 O.2   208  THR208     -0.2863
     54  CB        54.8400   16.3510   48.8400 C.3   208  THR208      0.1794
     55  OG1       55.0250   17.1710   49.9980 O.3   208  THR208     -0.2208
     56  CG2       55.2820   14.9250   49.1640 C.3   208  THR208      0.0378
     57  N         49.6860   25.0700   45.0120 N.3   248  THR248     -0.1203
     58  CA        50.4950   25.0060   46.2230 C.3   248  THR248      0.1994
     59  C         50.1670   26.1500   47.1810 C.2   248  THR248      0.2617
     60  O         49.5490   27.1440   46.7920 O.2   248  THR248     -0.2717
     61  CB        52.0030   25.0580   45.8330 C.3   248  THR248      0.1784
     62  OG1       52.8290   24.8700   46.9900 O.3   248  THR248     -0.2211
     63  CG2       52.3300   26.3910   45.1920 C.3   248  THR248      0.0376
     64  N         50.5770   26.0170   48.4340 N.am  249  ASN249     -0.1974
     65  CA        50.3130   27.0740   49.4070 C.3   249  ASN249      0.1688
     66  C         51.2350   28.2650   49.1850 C.2   249  ASN249      0.2292
     67  O         52.0780   28.2630   48.2830 O.2   249  ASN249     -0.2864
     68  CB        50.5340   26.5760   50.8430 C.3   249  ASN249      0.1181
     69  CG        49.5610   25.4880   51.2530 C.2   249  ASN249      0.2629
     70  OD1       48.4350   25.4250   50.7700 O.2   249  ASN249     -0.2716
     71  ND2       49.9900   24.6380   52.1760 N.am  249  ASN249     -0.0877
     72  N         54.2130   30.0800   50.5870 N.3   251  HIS251     -0.1241
     73  CA        55.3230   29.7250   51.4630 C.3   251  HIS251      0.1621
     74  C         56.0480   30.9070   52.1090 C.2   251  HIS251      0.2264
     75  O         56.0240   32.0280   51.6010 O.2   251  HIS251     -0.2867
     76  CB        56.3000   28.8590   50.6670 C.3   251  HIS251      0.0745
     77  CG        55.6250   27.7630   49.9000 C.ar  251  HIS251      0.0817
     78  ND1       54.9260   26.7460   50.5160 N.ar  251  HIS251     -0.2268
     79  CD2       55.5000   27.5520   48.5680 C.ar  251  HIS251      0.1154
     80  CE1       54.4010   25.9560   49.5970 C.ar  251  HIS251      0.1986
     81  NE2       54.7340   26.4230   48.4060 N.ar  251  HIS251     -0.2212
     82  N         60.8370   25.9940   49.9780 N.3   257  LEU257     -0.1245
     83  CA        59.5910   25.7610   49.2530 C.3   257  LEU257      0.1561
     84  C         59.3240   26.9310   48.3080 C.2   257  LEU257      0.2260
     85  O         58.8800   26.7320   47.1760 O.2   257  LEU257     -0.2867
     86  CB        58.4330   25.5850   50.2360 C.3   257  LEU257      0.0270
     87  CG        58.4860   24.2800   51.0430 C.3   257  LEU257      0.0019
     88  CD1       57.5380   24.3540   52.2300 C.3   257  LEU257      0.0001
     89  CD2       58.1330   23.1060   50.1390 C.3   257  LEU257      0.0001
     90  N         51.0270   30.2780   54.7220 N.3   285  TYR285     -0.1227
     91  CA        51.4050   29.0380   55.3910 C.3   285  TYR285      0.1736
     92  C         50.3780   27.9140   55.2910 C.2   285  TYR285      0.2596
     93  O         49.4050   28.0060   54.5420 O.2   285  TYR285     -0.2718
     94  CB        51.7510   29.3120   56.8620 C.3   285  TYR285      0.0548
     95  CG        52.8080   28.3820   57.4230 C.ar  285  TYR285     -0.0200
     96  CD1       54.0340   28.2210   56.7740 C.ar  285  TYR285     -0.0009
     97  CD2       52.5910   27.6720   58.6020 C.ar  285  TYR285     -0.0009
     98  CE1       55.0180   27.3750   57.2860 C.ar  285  TYR285      0.0417
     99  CE2       53.5690   26.8230   59.1240 C.ar  285  TYR285      0.0417
    100  CZ        54.7790   26.6820   58.4580 C.ar  285  TYR285      0.1957
    101  OH        55.7520   25.8540   58.9640 O.3   285  TYR285     -0.2866
    102  N         50.6220   26.8580   56.0650 N.am  286  SER286     -0.1952
    103  CA        49.8170   25.6360   56.1030 C.3   286  SER286      0.1924
    104  C         48.2990   25.7330   56.1380 C.2   286  SER286      0.2314
    105  O         47.6090   24.9480   55.4830 O.2   286  SER286     -0.2863
    106  CB        50.2740   24.7760   57.2830 C.3   286  SER286      0.2116
    107  OG        51.6860   24.6650   57.2920 O.3   286  SER286     -0.2180
@<TRIPOS>BOND
     1    32    33    1
     2    38    36    1
     3    33    36    1
     4    33    34    1
     5    36    37    1
     6    42    41    2
     7    57    58    1
     8    34    39   am
     9    34    35    2
    10    63    61    1
    11    39    40    1
    12    61    58    1
    13    61    62    1
    14    41    40    1
    15    41    43   am
    16    46    45    2
    17    53    52    2
    18    58    59    1
    19    44    45    1
    20    44    43    1
    21    44    47    1
    22    52    51    1
    23    45    50   am
    24    49    47    1
    25    60    59    2
    26     1     2    1
    27    47    48    1
    28    85    84    2
    29    59    64   am
    30    50    51    1
    31     2     5    1
    32     2     3    1
    33    51    54    1
    34     5     6    1
    35    67    66    2
    36    84    83    1
    37    81    79   ar
    38    81    80   ar
    39    64    65    1
    40    79    77   ar
    41    27    24    1
    42     3     4    2
    43    54    56    1
    44    54    55    1
    45    66    65    1
    46    83    82    1
    47    83    86    1
    48    26    25    2
    49    65    68    1
    50     6     8   am
    51     6     7    2
    52    29    28    1
    53    29    30    1
    54    80    78   ar
    55    25    28   am
    56    25    24    1
    57    24    23    1
    58    77    78   ar
    59    77    76    1
    60    89    87    1
    61    86    87    1
    62    31    30    2
    63    72    73    1
    64    76    73    1
    65    70    69    2
    66    68    69    1
    67    23    18   am
    68    87    88    1
    69    69    71   am
    70    73    74    1
    71    75    74    2
    72    18    19    2
    73    18    17    1
    74    21    20    1
    75    20    17    1
    76    20    22    1
    77    17    16    1
    78    16    11   am
    79    93    92    2
    80    90    91    1
    81    92    91    1
    82    92   102   am
    83    91    94    1
    84   105   104    2
    85    11    12    2
    86    11    10    1
    87   102   103    1
    88   103   104    1
    89   103   106    1
    90    96    98   ar
    91    96    95   ar
    92    94    95    1
    93    10    13    1
    94    10     9    1
    95   106   107    1
    96    98   100   ar
    97    95    97   ar
    98    13    14    1
    99     9    15    1
   100   100   101    1
   101   100    99   ar
   102    97    99   ar
   103    14    15    1
