@<TRIPOS>MOLECULE
tmp/1wdkA02.pdb
 174 166 0 0 0
SMALL
GASTEIGER

@<TRIPOS>ATOM
      1  N        -26.4830   67.0740  110.0580 N.3    28  SER28      -0.1217
      2  CA       -25.6850   66.1770  110.8850 C.3    28  SER28       0.1889
      3  C        -24.3400   65.7820  110.2680 C.2    28  SER28       0.2288
      4  O        -23.4360   65.3430  110.9820 O.2    28  SER28      -0.2866
      5  CB       -26.4900   64.9110  111.2160 C.3    28  SER28       0.2089
      6  OG       -26.9440   64.2600  110.0370 O.3    28  SER28      -0.2183
      7  N        -21.0130   66.7340   99.6800 N.3    32  PHE32      -0.1241
      8  CA       -20.9010   67.5950   98.5190 C.3    32  PHE32       0.1605
      9  C        -22.1830   67.7930   97.7300 C.2    32  PHE32       0.2264
     10  O        -22.3430   67.2700   96.6200 O.2    32  PHE32      -0.2867
     11  CB       -19.7820   67.1060   97.6030 C.3    32  PHE32       0.0534
     12  CG       -18.4140   67.4650   98.1010 C.ar   32  PHE32      -0.0203
     13  CD1      -17.5630   66.4930   98.6250 C.ar   32  PHE32      -0.0042
     14  CD2      -17.9870   68.7910   98.0850 C.ar   32  PHE32      -0.0042
     15  CE1      -16.3080   66.8380   99.1270 C.ar   32  PHE32      -0.0003
     16  CE2      -16.7380   69.1450   98.5840 C.ar   32  PHE32      -0.0003
     17  CZ       -15.8970   68.1650   99.1060 C.ar   32  PHE32      -0.0000
     18  N        -19.1470   62.8070  103.7030 N.3    67  VAL67      -0.1231
     19  CA       -19.7590   61.6320  103.0930 C.3    67  VAL67       0.1692
     20  C        -20.4420   62.0360  101.7950 C.2    67  VAL67       0.2593
     21  O        -20.3920   63.2020  101.4010 O.2    67  VAL67      -0.2718
     22  CB       -20.7920   60.9600  104.0480 C.3    67  VAL67       0.0266
     23  CG1      -20.1000   60.5310  105.3310 C.3    67  VAL67       0.0020
     24  CG2      -21.9390   61.9220  104.3650 C.3    67  VAL67       0.0020
     25  N        -21.0790   61.0750  101.1340 N.am   68  GLY68      -0.1942
     26  CA       -21.7360   61.3570   99.8720 C.3    68  GLY68       0.2014
     27  C        -22.9710   62.2240   99.9870 C.2    68  GLY68       0.2639
     28  O        -23.5430   62.3690  101.0670 O.2    68  GLY68      -0.2714
     29  N        -23.3810   62.8090   98.8670 N.am   69  ALA69      -0.1963
     30  CA       -24.5650   63.6570   98.8450 C.3    69  ALA69       0.1728
     31  C        -25.7980   62.7640   98.9580 C.2    69  ALA69       0.2616
     32  O        -25.6950   61.5350   98.8650 O.2    69  ALA69      -0.2715
     33  CB       -24.6090   64.4600   97.5520 C.3    69  ALA69       0.0334
     34  N        -26.9580   63.3810   99.1600 N.am   70  ASP70      -0.1957
     35  CA       -28.1990   62.6340   99.2840 C.3    70  ASP70       0.1840
     36  C        -28.5040   61.8700   98.0080 C.2    70  ASP70       0.2622
     37  O        -28.4220   62.4150   96.9090 O.2    70  ASP70      -0.2715
     38  CB       -29.3530   63.5750   99.6270 C.3    70  ASP70       0.1450
     39  CG       -29.1590   64.2550  100.9710 C.2    70  ASP70       0.3671
     40  OD1      -28.7640   63.5590  101.9310 O.co2  70  ASP70      -0.2456
     41  OD2      -29.4050   65.4780  101.0750 O.co2  70  ASP70      -0.2456
     42  N        -28.8520   60.6000   98.1670 N.am   71  ILE71      -0.1963
     43  CA       -29.1580   59.7410   97.0380 C.3    71  ILE71       0.1727
     44  C        -30.1310   60.4580   96.1000 C.2    71  ILE71       0.2616
     45  O        -30.1060   60.2690   94.8810 O.2    71  ILE71      -0.2715
     46  CB       -29.7530   58.3970   97.5330 C.3    71  ILE71       0.0290
     47  CG1      -29.7460   57.3730   96.4040 C.3    71  ILE71       0.0022
     48  CG2      -31.1510   58.6080   98.0740 C.3    71  ILE71       0.0023
     49  CD1      -28.3590   57.0550   95.8970 C.3    71  ILE71       0.0001
     50  N        -30.9640   61.3110   96.6820 N.am   72  THR72      -0.1951
     51  CA       -31.9410   62.0800   95.9250 C.3    72  THR72       0.1897
     52  C        -31.3170   62.8670   94.7790 C.2    72  THR72       0.2313
     53  O        -31.8190   62.8400   93.6530 O.2    72  THR72      -0.2863
     54  CB       -32.6680   63.0740   96.8280 C.3    72  THR72       0.1794
     55  OG1      -33.3300   62.3620   97.8790 O.3    72  THR72      -0.2208
     56  CG2      -33.6820   63.8600   96.0310 C.3    72  THR72       0.0378
     57  N        -28.5010   62.2860   93.3960 N.3    74  PHE74      -0.1241
     58  CA       -27.8900   61.3690   92.4420 C.3    74  PHE74       0.1605
     59  C        -28.9320   61.0650   91.3740 C.2    74  PHE74       0.2264
     60  O        -28.6480   61.1220   90.1820 O.2    74  PHE74      -0.2867
     61  CB       -27.4790   60.0550   93.1110 C.3    74  PHE74       0.0534
     62  CG       -26.1480   60.1030   93.7960 C.ar   74  PHE74      -0.0203
     63  CD1      -26.0020   60.7310   95.0250 C.ar   74  PHE74      -0.0042
     64  CD2      -25.0400   59.4990   93.2190 C.ar   74  PHE74      -0.0042
     65  CE1      -24.7650   60.7550   95.6780 C.ar   74  PHE74      -0.0003
     66  CE2      -23.8010   59.5160   93.8590 C.ar   74  PHE74      -0.0003
     67  CZ       -23.6660   60.1470   95.0940 C.ar   74  PHE74      -0.0000
     68  N        -16.1380   59.1970  102.6780 N.3   115  LEU115     -0.1231
     69  CA       -16.5750   58.3090  101.5960 C.3   115  LEU115      0.1693
     70  C        -16.8950   59.0350  100.2920 C.2   115  LEU115      0.2593
     71  O        -17.4650   60.1260  100.3090 O.2   115  LEU115     -0.2718
     72  CB       -17.8180   57.5410  102.0400 C.3   115  LEU115      0.0284
     73  CG       -17.7430   56.8570  103.4080 C.3   115  LEU115      0.0019
     74  CD1      -19.1160   56.2960  103.7830 C.3   115  LEU115      0.0001
     75  CD2      -16.6990   55.7580  103.3710 C.3   115  LEU115      0.0001
     76  N        -16.5450   58.4070   99.1690 N.am  116  GLY116     -0.1942
     77  CA       -16.8050   58.9930   97.8640 C.3   116  GLY116      0.2014
     78  C        -16.2600   60.4010   97.7170 C.2   116  GLY116      0.2639
     79  O        -15.0600   60.6260   97.8590 O.2   116  GLY116     -0.2714
     80  N        -17.1460   61.3500   97.4320 N.am  117  GLY117     -0.1954
     81  CA       -16.7280   62.7300   97.2780 C.3   117  GLY117      0.1869
     82  C        -15.8550   63.2040   98.4240 C.2   117  GLY117      0.2309
     83  O        -14.9380   64.0090   98.2330 O.2   117  GLY117     -0.2863
     84  N        -12.4730   61.8930   97.7570 N.3   120  GLU120     -0.1245
     85  CA       -11.9730   62.6180   96.5920 C.3   120  GLU120      0.1567
     86  C        -11.4210   63.9960   96.9610 C.2   120  GLU120      0.2260
     87  O        -10.4180   64.4360   96.3980 O.2   120  GLU120     -0.2867
     88  CB       -13.0690   62.6950   95.5320 C.3   120  GLU120      0.0388
     89  CG       -13.4020   61.2920   95.0300 C.3   120  GLU120      0.1160
     90  CD       -14.3850   61.2530   93.8850 C.2   120  GLU120      0.3649
     91  OE1      -15.5740   61.5570   94.0900 O.co2 120  GLU120     -0.2457
     92  OE2      -13.9580   60.9070   92.7710 O.co2 120  GLU120     -0.2457
     93  N        -17.3430   54.0860   97.6470 N.3   139  PRO139     -0.2102
     94  CA       -18.4680   53.1640   97.4390 C.3   139  PRO139      0.1504
     95  C        -19.2990   53.3610   96.1670 C.2   139  PRO139      0.2575
     96  O        -20.3500   52.7530   96.0030 O.2   139  PRO139     -0.2718
     97  CB       -19.2960   53.3590   98.7110 C.3   139  PRO139      0.0282
     98  CG       -19.1530   54.8100   98.9710 C.3   139  PRO139      0.0208
     99  CD       -17.6770   55.0990   98.6690 C.3   139  PRO139      0.0893
    100  N        -18.8170   54.1980   95.2650 N.am  140  GLU140     -0.1980
    101  CA       -19.5160   54.4750   94.0200 C.3   140  GLU140      0.1602
    102  C        -20.0240   53.2320   93.2880 C.2   140  GLU140      0.2287
    103  O        -21.1500   53.2310   92.7850 O.2   140  GLU140     -0.2864
    104  CB       -18.5980   55.2640   93.0900 C.3   140  GLU140      0.0415
    105  CG       -17.4710   56.0160   93.8140 C.3   140  GLU140      0.1163
    106  CD       -17.9590   57.2260   94.5740 C.2   140  GLU140      0.3649
    107  OE1      -17.1140   57.9490   95.1400 O.co2 140  GLU140     -0.2457
    108  OE2      -19.1870   57.4550   94.6010 O.co2 140  GLU140     -0.2457
    109  N        -21.2310   50.6600   94.3160 N.3   142  LYS142     -0.1231
    110  CA       -22.4460   50.1580   94.9430 C.3   142  LYS142      0.1693
    111  C        -23.6750   50.7170   94.2380 C.2   142  LYS142      0.2591
    112  O        -24.7360   50.0960   94.2320 O.2   142  LYS142     -0.2718
    113  CB       -22.5020   50.5790   96.4160 C.3   142  LYS142      0.0285
    114  CG       -22.1300   49.5000   97.4230 C.3   142  LYS142      0.0035
    115  CD       -20.6650   49.1400   97.3500 C.3   142  LYS142      0.0206
    116  CE       -20.2770   48.2130   98.5000 C.3   142  LYS142      0.1093
    117  NZ       -20.5540   48.8300   99.8340 N.3   142  LYS142     -0.1314
    118  N        -23.5220   51.9000   93.6510 N.am  143  LEU143     -0.1980
    119  CA       -24.6190   52.5640   92.9610 C.3   143  LEU143      0.1596
    120  C        -24.5840   52.3370   91.4510 C.2   143  LEU143      0.2287
    121  O        -25.3660   52.9310   90.7040 O.2   143  LEU143     -0.2864
    122  CB       -24.5840   54.0710   93.2550 C.3   143  LEU143      0.0297
    123  CG       -24.7020   54.5230   94.7110 C.3   143  LEU143      0.0022
    124  CD1      -24.6890   56.0480   94.7490 C.3   143  LEU143      0.0001
    125  CD2      -25.9770   53.9800   95.3480 C.3   143  LEU143      0.0001
    126  N        -15.2560   62.4810   90.9060 N.3   149  PHE149     -0.1241
    127  CA       -14.5060   63.6980   91.1870 C.3   149  PHE149      0.1605
    128  C        -13.0000   63.4400   91.2450 C.2   149  PHE149      0.2264
    129  O        -12.3430   63.7890   92.2240 O.2   149  PHE149     -0.2867
    130  CB       -14.9480   64.3360   92.5110 C.3   149  PHE149      0.0534
    131  CG       -16.3600   64.8470   92.5150 C.ar  149  PHE149     -0.0203
    132  CD1      -16.9610   65.3090   91.3500 C.ar  149  PHE149     -0.0042
    133  CD2      -17.0820   64.9040   93.7050 C.ar  149  PHE149     -0.0042
    134  CE1      -18.2610   65.8220   91.3650 C.ar  149  PHE149     -0.0003
    135  CE2      -18.3860   65.4160   93.7330 C.ar  149  PHE149     -0.0003
    136  CZ       -18.9740   65.8750   92.5610 C.ar  149  PHE149     -0.0000
    137  N        -31.0020   51.1560   97.0850 N.3   294  PHE294     -0.1241
    138  CA       -30.5840   52.0680   98.1280 C.3   294  PHE294      0.1605
    139  C        -31.7820   52.8400   98.6710 C.2   294  PHE294      0.2264
    140  O        -31.8990   53.0560   99.8750 O.2   294  PHE294     -0.2867
    141  CB       -29.5540   53.0270   97.5560 C.3   294  PHE294      0.0534
    142  CG       -28.4340   53.3300   98.4900 C.ar  294  PHE294     -0.0203
    143  CD1      -28.4390   54.5010   99.2490 C.ar  294  PHE294     -0.0042
    144  CD2      -27.3700   52.4350   98.6180 C.ar  294  PHE294     -0.0042
    145  CE1      -27.3970   54.7800  100.1240 C.ar  294  PHE294     -0.0003
    146  CE2      -26.3200   52.6970   99.4880 C.ar  294  PHE294     -0.0003
    147  CZ       -26.3310   53.8760  100.2470 C.ar  294  PHE294     -0.0000
    148  N        -33.4460   52.7730  102.4630 N.3   298  GLN298     -0.1245
    149  CA       -33.7760   53.9810  103.2210 C.3   298  GLN298      0.1566
    150  C        -35.2080   53.8880  103.7510 C.2   298  GLN298      0.2260
    151  O        -35.4860   54.2680  104.8870 O.2   298  GLN298     -0.2867
    152  CB       -33.6290   55.2300  102.3410 C.3   298  GLN298      0.0367
    153  CG       -32.1870   55.5690  101.9780 C.3   298  GLN298      0.0905
    154  CD       -31.3620   55.9550  103.1950 C.2   298  GLN298      0.2608
    155  OE1      -30.2430   55.4720  103.3850 O.2   298  GLN298     -0.2717
    156  NE2      -31.9110   56.8350  104.0260 N.am  298  GLN298     -0.0878
    157  N        -36.5400   53.7150  107.7460 N.3   302  LYS302     -0.1245
    158  CA       -37.4970   54.6140  108.3770 C.3   302  LYS302      0.1561
    159  C        -38.5470   53.7910  109.1250 C.2   302  LYS302      0.2260
    160  O        -39.0090   54.1920  110.1950 O.2   302  LYS302     -0.2867
    161  CB       -38.1680   55.5220  107.3460 C.3   302  LYS302      0.0271
    162  CG       -37.1970   56.4780  106.6980 C.3   302  LYS302      0.0035
    163  CD       -37.8940   57.5120  105.8400 C.3   302  LYS302      0.0206
    164  CE       -36.8720   58.4510  105.2120 C.3   302  LYS302      0.1093
    165  NZ       -37.5200   59.5180  104.3930 N.3   302  LYS302     -0.1314
    166  N        -37.1000   52.5760  112.4770 N.3   305  LYS305     -0.1245
    167  CA       -37.2060   53.5240  113.5760 C.3   305  LYS305      0.1561
    168  C        -38.5610   53.4760  114.2480 C.2   305  LYS305      0.2260
    169  O        -38.6620   53.6280  115.4610 O.2   305  LYS305     -0.2867
    170  CB       -36.9340   54.9390  113.0830 C.3   305  LYS305      0.0271
    171  CG       -35.4930   55.1670  112.6810 C.3   305  LYS305      0.0035
    172  CD       -35.2230   56.6370  112.4580 C.3   305  LYS305      0.0206
    173  CE       -33.7390   56.9010  112.2920 C.3   305  LYS305      0.1093
    174  NZ       -33.4810   58.3620  112.1500 N.3   305  LYS305     -0.1314
@<TRIPOS>BOND
     1    60    59    2
     2   121   120    2
     3   126   127    1
     4   127   128    1
     5   127   130    1
     6   128   129    2
     7   132   134   ar
     8   132   131   ar
     9   134   136   ar
    10    59    58    1
    11   120   119    1
    12    58    61    1
    13    58    57    1
    14   130   131    1
    15   131   133   ar
    16   136   135   ar
    17    92    90   ar
    18   103   102    2
    19   119   122    1
    20   119   118    1
    21   104   105    1
    22   104   101    1
    23    61    62    1
    24    64    62   ar
    25    64    66   ar
    26   122   123    1
    27   102   101    1
    28   118   111   am
    29    53    52    2
    30   133   135   ar
    31    62    63   ar
    32   105   106    1
    33    66    67   ar
    34    90    91   ar
    35    90    89    1
    36   101   100    1
    37   112   111    2
    38   111   110    1
    39   109   110    1
    40   106   108   ar
    41   106   107   ar
    42   123   124    1
    43   123   125    1
    44    52    51    1
    45    45    44    2
    46   110   113    1
    47    63    65   ar
    48    89    88    1
    49    67    65   ar
    50   100    95   am
    51    88    85    1
    52    49    47    1
    53    51    50    1
    54    51    54    1
    55    96    95    2
    56    56    54    1
    57    44    50   am
    58    44    43    1
    59    95    94    1
    60    87    86    2
    61    47    46    1
    62   113   114    1
    63    85    86    1
    64    85    84    1
    65    10     9    2
    66    54    55    1
    67    37    36    2
    68    43    46    1
    69    43    42    1
    70   137   138    1
    71    81    80    1
    72    81    82    1
    73   115   114    1
    74   115   116    1
    75    80    78   am
    76    94    93    1
    77    94    97    1
    78    46    48    1
    79    33    30    1
    80   141   138    1
    81   141   142    1
    82    11    12    1
    83    11     8    1
    84    93    99    1
    85    78    79    2
    86    78    77    1
    87     9     8    1
    88    77    76    1
    89    36    42   am
    90    36    35    1
    91    14    12   ar
    92    14    16   ar
    93    12    13   ar
    94   138   139    1
    95    83    82    2
    96   142   144   ar
    97   142   143   ar
    98   116   117    1
    99     8     7    1
   100    16    17   ar
   101   144   146   ar
   102    13    15   ar
   103    99    98    1
   104   139   140    2
   105    97    98    1
   106    30    29    1
   107    30    31    1
   108    32    31    2
   109    29    27   am
   110    31    34   am
   111    17    15   ar
   112    34    35    1
   113    76    70   am
   114   143   145   ar
   115    35    38    1
   116   146   147   ar
   117    38    39    1
   118    26    27    1
   119    26    25    1
   120    27    28    2
   121   145   147   ar
   122    70    71    2
   123    70    69    1
   124    39    41   ar
   125    39    40   ar
   126    25    20   am
   127    21    20    2
   128    69    72    1
   129    69    68    1
   130    20    19    1
   131   153   152    1
   132   153   154    1
   133    72    73    1
   134   152   149    1
   135   148   149    1
   136    19    18    1
   137    19    22    1
   138   154   155    2
   139   154   156   am
   140   149   150    1
   141    75    73    1
   142    73    74    1
   143   150   151    2
   144    22    24    1
   145    22    23    1
   146   165   164    1
   147   164   163    1
   148   163   162    1
   149   162   161    1
   150   161   158    1
   151   157   158    1
   152   158   159    1
   153   159   160    2
   154     6     5    1
   155     1     2    1
   156     3     2    1
   157     3     4    2
   158     2     5    1
   159   174   173    1
   160   173   172    1
   161   172   171    1
   162   166   167    1
   163   171   170    1
   164   170   167    1
   165   167   168    1
   166   168   169    2
