@<TRIPOS>MOLECULE
tmp/1wdlA02.pdb
 230 216 0 0 0
SMALL
GASTEIGER

@<TRIPOS>ATOM
      1  N        -14.3010   62.4430   60.7030 N.3    34  ARG34      -0.1245
      2  CA       -15.4880   61.6480   60.9940 C.3    34  ARG34       0.1563
      3  C        -16.5690   61.8800   59.9420 C.2    34  ARG34       0.2260
      4  O        -17.1000   60.9340   59.3620 O.2    34  ARG34      -0.2867
      5  CB       -16.0290   62.0050   62.3780 C.3    34  ARG34       0.0307
      6  CG       -16.9940   60.9860   62.9560 C.3    34  ARG34       0.0489
      7  CD       -16.3240   59.6290   63.1060 C.3    34  ARG34       0.2205
      8  NE       -16.8430   58.8870   64.2500 N.pl3  34  ARG34      -0.0865
      9  CZ       -16.7270   59.2920   65.5110 C.cat  34  ARG34       0.5346
     10  NH1      -16.1070   60.4300   65.7900 N.pl3  34  ARG34       0.1354
     11  NH2      -17.2250   58.5570   66.4950 N.pl3  34  ARG34       0.1354
     12  N        -15.7270   60.2740   56.3370 N.3    37  LEU37      -0.1231
     13  CA       -15.8550   58.8210   56.3110 C.3    37  LEU37       0.1693
     14  C        -17.3210   58.4140   56.3700 C.2    37  LEU37       0.2592
     15  O        -17.7290   57.4370   55.7400 O.2    37  LEU37      -0.2718
     16  CB       -15.1000   58.1910   57.4830 C.3    37  LEU37       0.0284
     17  CG       -13.7000   57.6570   57.1750 C.3    37  LEU37       0.0019
     18  CD1      -13.0660   57.1190   58.4460 C.3    37  LEU37       0.0001
     19  CD2      -13.7920   56.5620   56.1220 C.3    37  LEU37       0.0001
     20  N        -18.1080   59.1670   57.1300 N.am   38  ASN38      -0.1974
     21  CA       -19.5310   58.8880   57.2640 C.3    38  ASN38       0.1688
     22  C        -20.2700   59.0960   55.9490 C.2    38  ASN38       0.2292
     23  O        -21.0850   58.2630   55.5510 O.2    38  ASN38      -0.2864
     24  CB       -20.1490   59.7770   58.3460 C.3    38  ASN38       0.1181
     25  CG       -20.1830   59.1040   59.7040 C.2    38  ASN38       0.2629
     26  OD1      -20.5880   59.7070   60.6970 O.2    38  ASN38      -0.2716
     27  ND2      -19.7640   57.8450   59.7500 N.am   38  ASN38      -0.0877
     28  N        -19.6540   56.4520   53.3570 N.3    41  ARG41      -0.1245
     29  CA       -20.5090   55.3060   53.6290 C.3    41  ARG41       0.1563
     30  C        -21.8480   55.5220   52.9300 C.2    41  ARG41       0.2260
     31  O        -22.3320   54.6530   52.2060 O.2    41  ARG41      -0.2867
     32  CB       -20.7230   55.1770   55.1400 C.3    41  ARG41       0.0307
     33  CG       -21.6540   54.0560   55.5810 C.3    41  ARG41       0.0489
     34  CD       -21.0320   52.6820   55.4010 C.3    41  ARG41       0.2205
     35  NE       -21.0170   52.2550   54.0070 N.pl3  41  ARG41      -0.0865
     36  CZ       -20.5500   51.0820   53.5930 C.cat  41  ARG41       0.5346
     37  NH1      -20.0550   50.2160   54.4680 N.pl3  41  ARG41       0.1354
     38  NH2      -20.5850   50.7690   52.3050 N.pl3  41  ARG41       0.1354
     39  N         -3.8030   63.6630   54.0930 N.3    68  GLY68      -0.1210
     40  CA        -3.8310   62.7990   55.2670 C.3    68  GLY68       0.1956
     41  C         -5.1700   62.4380   55.8810 C.2    68  GLY68       0.2611
     42  O         -6.0720   61.9220   55.2260 O.2    68  GLY68      -0.2717
     43  N         -5.2510   62.6700   57.1730 N.am   69  ALA69      -0.1979
     44  CA        -6.4600   62.4240   57.9350 C.3    69  ALA69       0.1597
     45  C         -6.3250   63.3830   59.0930 C.2    69  ALA69       0.2287
     46  O         -5.2140   63.6640   59.5290 O.2    69  ALA69      -0.2864
     47  CB        -6.4730   60.9820   58.4610 C.3    69  ALA69       0.0319
     48  N         -6.5930   63.2970   62.3850 N.3    71  ILE71      -0.1245
     49  CA        -6.6730   62.2930   63.4420 C.3    71  ILE71       0.1561
     50  C         -7.1510   62.7630   64.8120 C.2    71  ILE71       0.2260
     51  O         -7.4720   61.9420   65.6710 O.2    71  ILE71      -0.2867
     52  CB        -5.3060   61.5890   63.5730 C.3    71  ILE71       0.0252
     53  CG1       -4.8610   61.1050   62.1890 C.3    71  ILE71       0.0019
     54  CG2       -5.3970   60.4120   64.5360 C.3    71  ILE71       0.0019
     55  CD1       -3.5100   60.4300   62.1670 C.3    71  ILE71       0.0001
     56  N        -10.0490   60.9750   65.9840 N.3    74  PHE74      -0.1241
     57  CA        -9.9740   59.5200   65.9820 C.3    74  PHE74       0.1605
     58  C         -9.2760   59.0710   67.2590 C.2    74  PHE74       0.2264
     59  O         -9.2600   57.8860   67.5900 O.2    74  PHE74      -0.2867
     60  CB        -9.1950   59.0190   64.7610 C.3    74  PHE74       0.0534
     61  CG        -9.9340   59.1790   63.4620 C.ar   74  PHE74      -0.0203
     62  CD1      -10.1540   60.4390   62.9180 C.ar   74  PHE74      -0.0042
     63  CD2      -10.4200   58.0640   62.7870 C.ar   74  PHE74      -0.0042
     64  CE1      -10.8490   60.5870   61.7170 C.ar   74  PHE74      -0.0003
     65  CE2      -11.1150   58.2010   61.5880 C.ar   74  PHE74      -0.0003
     66  CZ       -11.3310   59.4650   61.0520 C.ar   74  PHE74      -0.0000
     67  N        -11.0640   57.2280   69.8060 N.3    77  ASN77      -0.1225
     68  CA       -11.3360   55.9090   69.2500 C.3    77  ASN77       0.1785
     69  C        -10.0580   55.0770   69.1860 C.2    77  ASN77       0.2597
     70  O         -9.8990   54.2330   68.3050 O.2    77  ASN77      -0.2718
     71  CB       -11.9270   56.0420   67.8450 C.3    77  ASN77       0.1169
     72  CG       -13.1170   55.1290   67.6230 C.2    77  ASN77       0.2627
     73  OD1      -14.2390   55.4510   68.0080 O.2    77  ASN77      -0.2716
     74  ND2      -12.8740   53.9800   67.0090 N.am   77  ASN77      -0.0877
     75  N         -9.1480   55.3260   70.1220 N.am   78  PHE78      -0.1976
     76  CA        -7.8840   54.5990   70.1910 C.3    78  PHE78       0.1639
     77  C         -7.6400   54.1380   71.6190 C.2    78  PHE78       0.2290
     78  O         -6.8980   53.1850   71.8580 O.2    78  PHE78      -0.2864
     79  CB        -6.7180   55.4880   69.7520 C.3    78  PHE78       0.0560
     80  CG        -6.5760   55.6190   68.2640 C.ar   78  PHE78      -0.0200
     81  CD1       -6.4750   54.4880   67.4600 C.ar   78  PHE78      -0.0042
     82  CD2       -6.5100   56.8730   67.6660 C.ar   78  PHE78      -0.0042
     83  CE1       -6.3090   54.6050   66.0810 C.ar   78  PHE78      -0.0003
     84  CE2       -6.3440   57.0020   66.2890 C.ar   78  PHE78      -0.0003
     85  CZ        -6.2430   55.8650   65.4950 C.ar   78  PHE78      -0.0000
     86  N        -13.1550   48.4680   65.2150 N.3    88  GLY88      -0.1210
     87  CA       -13.4530   49.8480   64.8850 C.3    88  GLY88       0.1956
     88  C        -12.9060   50.2080   63.5190 C.2    88  GLY88       0.2611
     89  O        -13.6300   50.7240   62.6680 O.2    88  GLY88      -0.2717
     90  N        -11.6220   49.9380   63.3080 N.am   89  ASN89      -0.1974
     91  CA       -10.9890   50.2310   62.0300 C.3    89  ASN89       0.1688
     92  C        -11.5890   49.3240   60.9650 C.2    89  ASN89       0.2292
     93  O        -11.7710   49.7330   59.8200 O.2    89  ASN89      -0.2864
     94  CB        -9.4750   50.0010   62.1060 C.3    89  ASN89       0.1181
     95  CG        -8.8010   50.8610   63.1590 C.2    89  ASN89       0.2629
     96  OD1       -7.5790   50.9980   63.1700 O.2    89  ASN89      -0.2716
     97  ND2       -9.5940   51.4360   64.0560 N.am   89  ASN89      -0.0877
     98  N        -14.5920   48.2700   60.6640 N.3    91  GLU91      -0.1231
     99  CA       -15.8470   48.8600   60.2200 C.3    91  GLU91       0.1699
    100  C        -15.5810   50.0230   59.2700 C.2    91  GLU91       0.2592
    101  O        -16.3420   50.2570   58.3310 O.2    91  GLU91      -0.2718
    102  CB       -16.6470   49.3420   61.4330 C.3    91  GLU91       0.0402
    103  CG       -18.0580   49.8030   61.1200 C.3    91  GLU91       0.1161
    104  CD       -18.8150   50.2280   62.3630 C.2    91  GLU91       0.3649
    105  OE1      -19.0020   49.3860   63.2660 O.co2  91  GLU91      -0.2457
    106  OE2      -19.2200   51.4070   62.4370 O.co2  91  GLU91      -0.2457
    107  N        -14.4970   50.7490   59.5200 N.am   92  ALA92      -0.1980
    108  CA       -14.1280   51.8810   58.6800 C.3    92  ALA92       0.1597
    109  C        -13.6530   51.3720   57.3250 C.2    92  ALA92       0.2287
    110  O        -13.9350   51.9740   56.2890 O.2    92  ALA92      -0.2864
    111  CB       -13.0260   52.6920   59.3500 C.3    92  ALA92       0.0319
    112  N        -16.0630   50.4300   54.2890 N.3    95  ILE95      -0.1245
    113  CA       -16.4080   51.4240   53.2830 C.3    95  ILE95       0.1561
    114  C        -15.5610   51.2000   52.0360 C.2    95  ILE95       0.2260
    115  O        -16.0820   50.8490   50.9760 O.2    95  ILE95      -0.2867
    116  CB       -16.1540   52.8570   53.7950 C.3    95  ILE95       0.0252
    117  CG1      -16.9010   53.0820   55.1100 C.3    95  ILE95       0.0019
    118  CG2      -16.6090   53.8680   52.7500 C.3    95  ILE95       0.0019
    119  CD1      -16.6310   54.4310   55.7440 C.3    95  ILE95       0.0001
    120  N         -2.1120   62.0500   50.0840 N.3   115  LEU115     -0.1231
    121  CA        -1.3100   61.4150   51.1210 C.3   115  LEU115      0.1693
    122  C         -2.1380   60.6770   52.1670 C.2   115  LEU115      0.2593
    123  O         -3.3170   60.9690   52.3640 O.2   115  LEU115     -0.2718
    124  CB        -0.4340   62.4670   51.8030 C.3   115  LEU115      0.0284
    125  CG         0.5940   63.1460   50.8920 C.3   115  LEU115      0.0019
    126  CD1        1.2280   64.3180   51.6150 C.3   115  LEU115      0.0001
    127  CD2        1.6490   62.1360   50.4670 C.3   115  LEU115      0.0001
    128  N         -1.5000   59.7180   52.8330 N.am  116  GLY116     -0.1942
    129  CA        -2.1680   58.9440   53.8630 C.3   116  GLY116      0.2014
    130  C         -3.4630   58.2960   53.4130 C.2   116  GLY116      0.2639
    131  O         -3.4830   57.5200   52.4560 O.2   116  GLY116     -0.2714
    132  N         -4.5480   58.6160   54.1110 N.am  117  GLY117     -0.1954
    133  CA        -5.8410   58.0550   53.7700 C.3   117  GLY117      0.1869
    134  C         -6.2900   58.4710   52.3840 C.2   117  GLY117      0.2309
    135  O         -7.0920   57.7860   51.7480 O.2   117  GLY117     -0.2863
    136  N         -5.0640   55.8580   50.1110 N.3   120  GLU120     -0.1245
    137  CA        -5.7570   54.6120   50.4110 C.3   120  GLU120      0.1567
    138  C         -7.1130   54.5530   49.7190 C.2   120  GLU120      0.2260
    139  O         -7.5960   53.4740   49.3760 O.2   120  GLU120     -0.2867
    140  CB        -5.9170   54.4560   51.9240 C.3   120  GLU120      0.0388
    141  CG        -4.5920   54.2520   52.6420 C.3   120  GLU120      0.1160
    142  CD        -4.7490   54.0640   54.1360 C.2   120  GLU120      0.3649
    143  OE1       -5.1050   55.0400   54.8280 O.co2 120  GLU120     -0.2457
    144  OE2       -4.5190   52.9340   54.6170 O.co2 120  GLU120     -0.2457
    145  N          2.9310   58.8600   54.5320 N.3   139  PRO139     -0.2102
    146  CA         3.8010   59.3780   55.5950 C.3   139  PRO139      0.1504
    147  C          3.3630   59.0320   57.0200 C.2   139  PRO139      0.2575
    148  O          3.7960   59.6690   57.9810 O.2   139  PRO139     -0.2718
    149  CB         3.7780   60.8790   55.3400 C.3   139  PRO139      0.0282
    150  CG         2.3700   61.0950   54.8930 C.3   139  PRO139      0.0208
    151  CD         2.1540   59.9540   53.9200 C.3   139  PRO139      0.0893
    152  N          2.5130   58.0220   57.1470 N.am  140  GLU140     -0.1980
    153  CA         2.0020   57.5860   58.4450 C.3   140  GLU140      0.1602
    154  C          3.1230   57.3550   59.4560 C.2   140  GLU140      0.2287
    155  O          2.9700   57.6450   60.6430 O.2   140  GLU140     -0.2864
    156  CB         1.2050   56.2930   58.2690 C.3   140  GLU140      0.0415
    157  CG         0.7090   56.0850   56.8470 C.3   140  GLU140      0.1163
    158  CD        -0.7920   56.2140   56.7130 C.2   140  GLU140      0.3649
    159  OE1       -1.2650   56.4520   55.5820 O.co2 140  GLU140     -0.2457
    160  OE2       -1.4980   56.0640   57.7300 O.co2 140  GLU140     -0.2457
    161  N          4.1490   59.5880   62.1440 N.3   143  LEU143     -0.1245
    162  CA         3.2130   59.6900   63.2560 C.3   143  LEU143      0.1561
    163  C          3.3350   58.5270   64.2390 C.2   143  LEU143      0.2260
    164  O          2.6880   58.5200   65.2860 O.2   143  LEU143     -0.2867
    165  CB         1.7820   59.7660   62.7150 C.3   143  LEU143      0.0270
    166  CG         1.5500   60.7630   61.5720 C.3   143  LEU143      0.0019
    167  CD1        0.0890   60.7360   61.1580 C.3   143  LEU143      0.0001
    168  CD2        1.9550   62.1610   62.0110 C.3   143  LEU143      0.0001
    169  N          2.6660   55.4000   63.3660 N.3   145  ILE145     -0.1245
    170  CA         1.6740   54.4110   62.9600 C.3   145  ILE145      0.1561
    171  C          1.8020   54.1490   61.4670 C.2   145  ILE145      0.2260
    172  O          2.4190   54.9310   60.7450 O.2   145  ILE145     -0.2867
    173  CB         0.2430   54.9150   63.2280 C.3   145  ILE145      0.0252
    174  CG1        0.0430   56.2710   62.5430 C.3   145  ILE145      0.0019
    175  CG2       -0.0060   55.0190   64.7240 C.3   145  ILE145      0.0019
    176  CD1       -1.3650   56.8120   62.6300 C.3   145  ILE145      0.0001
    177  N         -3.8150   52.6250   58.0550 N.3   148  GLY148     -0.1210
    178  CA        -4.8760   51.9130   58.7420 C.3   148  GLY148      0.1956
    179  C         -6.1170   51.6680   57.9050 C.2   148  GLY148      0.2611
    180  O         -7.0640   51.0330   58.3700 O.2   148  GLY148     -0.2717
    181  N         -6.1200   52.1680   56.6730 N.am  149  PHE149     -0.1976
    182  CA        -7.2630   51.9860   55.7850 C.3   149  PHE149      0.1639
    183  C         -6.9250   51.1100   54.5820 C.2   149  PHE149      0.2290
    184  O         -7.1730   51.4900   53.4370 O.2   149  PHE149     -0.2864
    185  CB        -7.7900   53.3390   55.2940 C.3   149  PHE149      0.0560
    186  CG        -8.4400   54.1690   56.3660 C.ar  149  PHE149     -0.0200
    187  CD1       -9.4010   53.6170   57.2070 C.ar  149  PHE149     -0.0042
    188  CD2       -8.1150   55.5130   56.5150 C.ar  149  PHE149     -0.0042
    189  CE1      -10.0280   54.3910   58.1790 C.ar  149  PHE149     -0.0003
    190  CE2       -8.7380   56.2950   57.4840 C.ar  149  PHE149     -0.0003
    191  CZ        -9.6960   55.7320   58.3170 C.ar  149  PHE149     -0.0000
    192  N         -2.0580   47.6850   64.0470 N.3   278  PHE278     -0.1241
    193  CA        -2.2650   49.1220   64.1640 C.3   278  PHE278      0.1605
    194  C         -2.6140   49.4900   65.6010 C.2   278  PHE278      0.2264
    195  O         -2.1920   50.5290   66.1070 O.2   278  PHE278     -0.2867
    196  CB        -3.3920   49.5700   63.2330 C.3   278  PHE278      0.0534
    197  CG        -3.5320   51.0600   63.1250 C.ar  278  PHE278     -0.0203
    198  CD1       -2.5560   51.8190   62.4880 C.ar  278  PHE278     -0.0042
    199  CD2       -4.6360   51.7090   63.6640 C.ar  278  PHE278     -0.0042
    200  CE1       -2.6790   53.2040   62.3880 C.ar  278  PHE278     -0.0003
    201  CE2       -4.7680   53.0930   63.5700 C.ar  278  PHE278     -0.0003
    202  CZ        -3.7880   53.8410   62.9310 C.ar  278  PHE278     -0.0000
    203  N          1.5430   64.5320   64.4950 N.3   294  PHE294     -0.1241
    204  CA         0.5470   64.8970   63.4960 C.3   294  PHE294      0.1605
    205  C          0.3250   66.4040   63.3920 C.2   294  PHE294      0.2264
    206  O          0.4740   66.9870   62.3170 O.2   294  PHE294     -0.2867
    207  CB        -0.7790   64.2020   63.8160 C.3   294  PHE294      0.0534
    208  CG        -1.9310   64.6840   62.9860 C.ar  294  PHE294     -0.0203
    209  CD1       -3.0850   65.1650   63.5950 C.ar  294  PHE294     -0.0042
    210  CD2       -1.8630   64.6660   61.5960 C.ar  294  PHE294     -0.0042
    211  CE1       -4.1550   65.6230   62.8330 C.ar  294  PHE294     -0.0003
    212  CE2       -2.9290   65.1220   60.8250 C.ar  294  PHE294     -0.0003
    213  CZ        -4.0770   65.6020   61.4450 C.ar  294  PHE294     -0.0000
    214  N          3.1600   68.2730   62.0170 N.3   297  ASP297     -0.1239
    215  CA         3.2760   68.2010   60.5660 C.3   297  ASP297      0.1674
    216  C          2.2480   69.1660   59.9830 C.2   297  ASP297      0.2266
    217  O          2.5020   69.8370   58.9830 O.2   297  ASP297     -0.2867
    218  CB         3.0020   66.7780   60.0780 C.3   297  ASP297      0.1410
    219  CG         3.5370   66.5270   58.6810 C.2   297  ASP297      0.3668
    220  OD1        3.3240   65.4140   58.1520 O.co2 297  ASP297     -0.2456
    221  OD2        4.1750   67.4370   58.1120 O.co2 297  ASP297     -0.2456
    222  N          2.9990   71.9470   57.0190 N.3   301  LYS301     -0.1245
    223  CA         2.4120   71.9960   55.6860 C.3   301  LYS301      0.1561
    224  C          1.7270   73.3340   55.4340 C.2   301  LYS301      0.2260
    225  O          1.5940   73.7700   54.2890 O.2   301  LYS301     -0.2867
    226  CB         1.4220   70.8440   55.5100 C.3   301  LYS301      0.0271
    227  CG         2.0860   69.4810   55.5950 C.3   301  LYS301      0.0035
    228  CD         1.0740   68.3530   55.6550 C.3   301  LYS301      0.0206
    229  CE         1.7730   67.0170   55.8530 C.3   301  LYS301      0.1093
    230  NZ         0.8120   65.9080   56.1080 N.3   301  LYS301     -0.1314
@<TRIPOS>BOND
     1   139   138    2
     2   138   137    1
     3   120   121    1
     4   136   137    1
     5   137   140    1
     6   127   125    1
     7   125   126    1
     8   125   124    1
     9   115   114    2
    10   121   124    1
    11   121   122    1
    12   135   134    2
    13   140   141    1
    14   114   113    1
    15   122   123    2
    16   122   128   am
    17    31    30    2
    18    38    36    1
    19   134   133    1
    20   131   130    2
    21   141   142    1
    22   118   116    1
    23   128   129    1
    24    30    29    1
    25   113   116    1
    26   113   112    1
    27    28    29    1
    28   130   129    1
    29   130   132   am
    30   184   183    2
    31    36    35    2
    32    36    37    1
    33    29    32    1
    34   133   132    1
    35   116   117    1
    36   151   145    1
    37   151   150    1
    38    35    34    1
    39    39    40    1
    40   142   144   ar
    41   142   143   ar
    42   225   224    2
    43   145   146    1
    44   183   182    1
    45   150   149    1
    46   117   119    1
    47    32    33    1
    48    42    41    2
    49    40    41    1
    50   185   182    1
    51   185   186    1
    52   149   146    1
    53    34    33    1
    54   224   223    1
    55   226   227    1
    56   226   223    1
    57    23    22    2
    58   159   158   ar
    59   146   147    1
    60   227   228    1
    61   228   229    1
    62   223   222    1
    63    15    14    2
    64   182   181    1
    65   229   230    1
    66    41    43   am
    67    22    21    1
    68    19    17    1
    69   110   109    2
    70    13    12    1
    71    13    14    1
    72    13    16    1
    73   186   188   ar
    74   186   187   ar
    75    14    20   am
    76   188   190   ar
    77   181   179   am
    78   158   157    1
    79   158   160   ar
    80   157   156    1
    81   147   152   am
    82   147   148    2
    83    20    21    1
    84   152   153    1
    85    43    44    1
    86    17    16    1
    87    17    18    1
    88   187   189   ar
    89    21    24    1
    90   109   108    1
    91   190   191   ar
    92   179   180    2
    93   179   178    1
    94    44    47    1
    95    44    45    1
    96   177   178    1
    97   221   219   ar
    98   220   219   ar
    99   189   191   ar
   100   156   153    1
   101   101   100    2
   102    24    25    1
   103   153   154    1
   104   108   111    1
   105   108   107    1
   106   219   218    1
   107   217   216    2
   108    45    46    2
   109   100   107   am
   110   100    99    1
   111     4     3    2
   112   154   155    2
   113    25    27   am
   114    25    26    2
   115    93    92    2
   116     3     2    1
   117   216   215    1
   118   218   215    1
   119    99    98    1
   120    99   102    1
   121   215   214    1
   122     1     2    1
   123   172   171    2
   124   212   213   ar
   125   212   210   ar
   126    92    91    1
   127     2     5    1
   128    66    65   ar
   129    66    64   ar
   130   103   102    1
   131   103   104    1
   132   167   166    1
   133   213   211   ar
   134   171   170    1
   135   166   168    1
   136   166   165    1
   137    65    63   ar
   138   210   208   ar
   139    64    62   ar
   140    91    94    1
   141    91    90    1
   142    94    95    1
   143   161   162    1
   144    55    53    1
   145    53    52    1
   146   206   205    2
   147   104   106   ar
   148   104   105   ar
   149     5     6    1
   150    48    49    1
   151   200   198   ar
   152   200   202   ar
   153   198   197   ar
   154   174   176    1
   155   174   173    1
   156    89    88    2
   157   165   162    1
   158    63    61   ar
   159   211   209   ar
   160    62    61   ar
   161   202   201   ar
   162     6     7    1
   163   170   173    1
   164   170   169    1
   165   208   209   ar
   166   208   207    1
   167     7     8    1
   168   197   196    1
   169   197   199   ar
   170    95    96    2
   171    95    97   am
   172   173   175    1
   173   196   193    1
   174   162   163    1
   175    90    88   am
   176   205   204    1
   177    49    52    1
   178    49    50    1
   179    61    60    1
   180   204   207    1
   181   204   203    1
   182    88    87    1
   183   201   199   ar
   184    52    54    1
   185   192   193    1
   186   193   194    1
   187   163   164    2
   188     8     9    2
   189    60    57    1
   190    50    51    2
   191    87    86    1
   192    85    83   ar
   193    85    84   ar
   194     9    10    1
   195     9    11    1
   196   194   195    2
   197    57    56    1
   198    57    58    1
   199    83    81   ar
   200    84    82   ar
   201    74    72   am
   202    58    59    2
   203    81    80   ar
   204    72    71    1
   205    72    73    2
   206    82    80   ar
   207    71    68    1
   208    80    79    1
   209    70    69    2
   210    69    68    1
   211    69    75   am
   212    68    67    1
   213    79    76    1
   214    75    76    1
   215    76    77    1
   216    77    78    2
