@<TRIPOS>MOLECULE
tmp/1wdlC00.pdb
 148 139 0 0 0
SMALL
GASTEIGER

@<TRIPOS>ATOM
      1  N         40.8410   46.5820   39.1480 N.3    21  LYS21      -0.1245
      2  CA        41.1860   47.8720   39.7340 C.3    21  LYS21       0.1561
      3  C         42.6060   48.2990   39.3690 C.2    21  LYS21       0.2260
      4  O         43.4740   48.4000   40.2360 O.2    21  LYS21      -0.2867
      5  CB        41.0400   47.8140   41.2570 C.3    21  LYS21       0.0271
      6  CG        39.6910   47.3150   41.7810 C.3    21  LYS21       0.0035
      7  CD        38.5410   48.2390   41.4330 C.3    21  LYS21       0.0206
      8  CE        37.2360   47.7000   41.9690 C.3    21  LYS21       0.1093
      9  NZ        36.9010   46.3670   41.3940 N.3    21  LYS21      -0.1314
     10  N         30.0510   45.8410   36.4320 N.3   129  MET129     -0.1245
     11  CA        28.7530   45.1980   36.5680 C.3   129  MET129      0.1570
     12  C         27.6160   46.1650   36.8880 C.2   129  MET129      0.2261
     13  O         26.5870   46.1540   36.2170 O.2   129  MET129     -0.2867
     14  CB        28.8240   44.1010   37.6330 C.3   129  MET129      0.0387
     15  CG        29.3060   44.5710   38.9950 C.3   129  MET129      0.0595
     16  SD        29.3880   43.2100   40.1740 S.3   129  MET129     -0.1393
     17  CE        27.6470   42.8720   40.4100 C.3   129  MET129      0.0692
     18  N         23.6300   39.2670   44.7190 N.3   150  MET150     -0.1245
     19  CA        24.3160   37.9930   44.9060 C.3   150  MET150      0.1570
     20  C         24.8630   37.8180   46.3190 C.2   150  MET150      0.2261
     21  O         24.7600   36.7410   46.9050 O.2   150  MET150     -0.2867
     22  CB        25.4660   37.8820   43.9040 C.3   150  MET150      0.0387
     23  CG        25.0830   38.2160   42.4700 C.3   150  MET150      0.0595
     24  SD        24.0460   36.9690   41.6920 S.3   150  MET150     -0.1393
     25  CE        25.2990   35.9260   40.9450 C.3   150  MET150      0.0692
     26  N         43.4830   30.3540   47.5810 N.3   176  HIS176     -0.1241
     27  CA        44.6910   31.1120   47.2760 C.3   176  HIS176      0.1621
     28  C         45.9090   30.1960   47.3150 C.2   176  HIS176      0.2264
     29  O         46.7060   30.1560   46.3790 O.2   176  HIS176     -0.2867
     30  CB        44.8760   32.2430   48.2910 C.3   176  HIS176      0.0745
     31  CG        43.9750   33.4170   48.0650 C.ar  176  HIS176      0.0817
     32  ND1       44.1200   34.2710   46.9930 N.ar  176  HIS176     -0.2268
     33  CD2       42.9240   33.8850   48.7780 C.ar  176  HIS176      0.1154
     34  CE1       43.1990   35.2150   47.0560 C.ar  176  HIS176      0.1986
     35  NE2       42.4600   35.0050   48.1310 N.ar  176  HIS176     -0.2212
     36  N         46.6920   35.7960   45.8350 N.3   214  ARG214     -0.1245
     37  CA        47.3480   36.4660   46.9550 C.3   214  ARG214      0.1563
     38  C         47.8360   35.4240   47.9610 C.2   214  ARG214      0.2260
     39  O         47.1100   35.0470   48.8800 O.2   214  ARG214     -0.2867
     40  CB        46.3720   37.4280   47.6380 C.3   214  ARG214      0.0307
     41  CG        46.9790   38.7740   47.9970 C.3   214  ARG214      0.0489
     42  CD        47.4380   39.5030   46.7430 C.3   214  ARG214      0.2205
     43  NE        47.9830   40.8250   47.0320 N.pl3 214  ARG214     -0.0865
     44  CZ        48.4290   41.6650   46.1050 C.cat 214  ARG214      0.5346
     45  NH1       48.3940   41.3210   44.8250 N.pl3 214  ARG214      0.1354
     46  NH2       48.9050   42.8520   46.4560 N.pl3 214  ARG214      0.1354
     47  N         49.8220   35.5930   50.4460 N.3   216  ASP216     -0.1225
     48  CA        49.8780   36.0600   51.8270 C.3   216  ASP216      0.1805
     49  C         48.5400   35.9750   52.5560 C.2   216  ASP216      0.2598
     50  O         48.4510   36.3020   53.7400 O.2   216  ASP216     -0.2718
     51  CB        50.3950   37.5020   51.8710 C.3   216  ASP216      0.1424
     52  CG        49.5970   38.4360   50.9830 C.2   216  ASP216      0.3668
     53  OD1       49.5750   38.2170   49.7540 O.co2 216  ASP216     -0.2456
     54  OD2       48.9920   39.3910   51.5130 O.co2 216  ASP216     -0.2456
     55  N         47.5030   35.5310   51.8540 N.am  217  THR217     -0.1953
     56  CA        46.1770   35.4120   52.4510 C.3   217  THR217      0.1897
     57  C         46.1510   34.3560   53.5530 C.2   217  THR217      0.2313
     58  O         46.2050   33.1560   53.2800 O.2   217  THR217     -0.2863
     59  CB        45.1160   35.0470   51.3930 C.3   217  THR217      0.1794
     60  OG1       45.0940   36.0520   50.3720 O.3   217  THR217     -0.2208
     61  CG2       43.7380   34.9540   52.0310 C.3   217  THR217      0.0378
     62  N         44.7360   37.4560   58.3110 N.3   221  SER221     -0.1202
     63  CA        44.4690   38.5860   57.4280 C.3   221  SER221      0.2020
     64  C         43.0210   38.6260   56.9520 C.2   221  SER221      0.2618
     65  O         42.4870   39.6970   56.6640 O.2   221  SER221     -0.2717
     66  CB        45.4080   38.5420   56.2180 C.3   221  SER221      0.2103
     67  OG        45.2130   37.3630   55.4580 O.3   221  SER221     -0.2182
     68  N         42.3900   37.4590   56.8680 N.am  222  LEU222     -0.1979
     69  CA        41.0020   37.3710   56.4270 C.3   222  LEU222      0.1596
     70  C         40.0340   37.7300   57.5470 C.2   222  LEU222      0.2287
     71  O         39.0050   38.3630   57.3130 O.2   222  LEU222     -0.2864
     72  CB        40.6910   35.9590   55.9240 C.3   222  LEU222      0.0297
     73  CG        41.3380   35.5230   54.6100 C.3   222  LEU222      0.0022
     74  CD1       40.9110   34.1020   54.2820 C.3   222  LEU222      0.0001
     75  CD2       40.9270   36.4720   53.4970 C.3   222  LEU222      0.0001
     76  N         38.9650   41.4700   57.7610 N.3   225  LEU225     -0.1245
     77  CA        38.0100   42.1120   56.8660 C.3   225  LEU225      0.1561
     78  C         36.6400   42.2250   57.5270 C.2   225  LEU225      0.2260
     79  O         36.3260   41.4810   58.4550 O.2   225  LEU225     -0.2867
     80  CB        37.8920   41.3140   55.5680 C.3   225  LEU225      0.0270
     81  CG        39.2000   41.0240   54.8290 C.3   225  LEU225      0.0019
     82  CD1       38.9090   40.1620   53.6130 C.3   225  LEU225      0.0001
     83  CD2       39.8690   42.3260   54.4170 C.3   225  LEU225      0.0001
     84  N         30.8850   42.3420   53.9630 N.3   228  ALA228     -0.1231
     85  CA        30.6660   43.1570   52.7760 C.3   228  ALA228      0.1694
     86  C         29.2000   43.3950   52.4270 C.2   228  ALA228      0.2592
     87  O         28.8520   44.4570   51.9090 O.2   228  ALA228     -0.2718
     88  CB        31.3860   42.5340   51.5860 C.3   228  ALA228      0.0304
     89  N         28.3410   42.4190   52.7060 N.am  229  PHE229     -0.1976
     90  CA        26.9250   42.5640   52.3800 C.3   229  PHE229      0.1639
     91  C         25.9970   42.6830   53.5860 C.2   229  PHE229      0.2290
     92  O         24.7860   42.8270   53.4250 O.2   229  PHE229     -0.2864
     93  CB        26.4700   41.4000   51.4990 C.3   229  PHE229      0.0560
     94  CG        27.3640   41.1490   50.3200 C.ar  229  PHE229     -0.0200
     95  CD1       28.4070   40.2330   50.4060 C.ar  229  PHE229     -0.0042
     96  CD2       27.1790   41.8440   49.1300 C.ar  229  PHE229     -0.0042
     97  CE1       29.2540   40.0100   49.3230 C.ar  229  PHE229     -0.0003
     98  CE2       28.0210   41.6290   48.0410 C.ar  229  PHE229     -0.0003
     99  CZ        29.0600   40.7090   48.1390 C.ar  229  PHE229     -0.0000
    100  N         34.8160   40.3900   51.3690 N.3   238  ALA238     -0.1231
    101  CA        35.4640   40.5020   50.0680 C.3   238  ALA238      0.1694
    102  C         36.5070   39.4020   49.9060 C.2   238  ALA238      0.2592
    103  O         36.8410   39.0070   48.7890 O.2   238  ALA238     -0.2718
    104  CB        36.1210   41.8680   49.9290 C.3   238  ALA238      0.0304
    105  N         37.0100   38.9070   51.0320 N.am  239  GLY239     -0.1957
    106  CA        38.0140   37.8610   51.0030 C.3   239  GLY239      0.1869
    107  C         37.4800   36.4940   50.6240 C.2   239  GLY239      0.2309
    108  O         38.2010   35.6870   50.0350 O.2   239  GLY239     -0.2863
    109  N         34.7500   36.1990   48.7640 N.3   241  SER241     -0.1202
    110  CA        33.9920   36.4150   47.5350 C.3   241  SER241      0.2020
    111  C         34.9360   36.3710   46.3400 C.2   241  SER241      0.2619
    112  O         36.1160   36.6960   46.4650 O.2   241  SER241     -0.2717
    113  CB        33.2880   37.7740   47.5740 C.3   241  SER241      0.2103
    114  OG        32.3360   37.8370   48.6200 O.3   241  SER241     -0.2182
    115  N         34.4180   35.9690   45.1820 N.am  242  SER242     -0.1937
    116  CA        35.2390   35.9030   43.9780 C.3   242  SER242      0.2055
    117  C         35.7250   37.3080   43.6430 C.2   242  SER242      0.2643
    118  O         35.1280   38.2970   44.0690 O.2   242  SER242     -0.2714
    119  CB        34.4340   35.3360   42.8070 C.3   242  SER242      0.2130
    120  OG        33.4220   36.2370   42.4000 O.3   242  SER242     -0.2179
    121  N         36.8060   37.3960   42.8780 N.am  243  GLN243     -0.1963
    122  CA        37.3760   38.6880   42.5140 C.3   243  GLN243      0.1733
    123  C         36.8530   39.2710   41.2090 C.2   243  GLN243      0.2616
    124  O         36.4930   38.5410   40.2850 O.2   243  GLN243     -0.2715
    125  CB        38.9000   38.5860   42.4150 C.3   243  GLN243      0.0408
    126  CG        39.6170   38.3300   43.7250 C.3   243  GLN243      0.0908
    127  CD        41.1240   38.3530   43.5660 C.2   243  GLN243      0.2608
    128  OE1       41.6930   39.3320   43.0820 O.2   243  GLN243     -0.2717
    129  NE2       41.7790   37.2720   43.9720 N.am  243  GLN243     -0.0878
    130  N         36.8170   40.5990   41.1480 N.am  244  ILE244     -0.1977
    131  CA        36.3930   41.3020   39.9460 C.3   244  ILE244      0.1596
    132  C         37.5910   41.1400   39.0230 C.2   244  ILE244      0.2287
    133  O         38.6310   41.7600   39.2420 O.2   244  ILE244     -0.2864
    134  CB        36.1780   42.8030   40.2150 C.3   244  ILE244      0.0276
    135  CG1       35.1640   42.9920   41.3440 C.3   244  ILE244      0.0022
    136  CG2       35.7160   43.4980   38.9450 C.3   244  ILE244      0.0022
    137  CD1       33.8090   42.3760   41.0700 C.3   244  ILE244      0.0001
    138  N         31.1750   32.3250   46.3090 N.3   314  PHE314     -0.1241
    139  CA        31.2860   32.7310   47.7030 C.3   314  PHE314      0.1605
    140  C         31.5800   31.4680   48.5000 C.2   314  PHE314      0.2264
    141  O         31.0350   30.4060   48.2030 O.2   314  PHE314     -0.2867
    142  CB        29.9690   33.3320   48.1980 C.3   314  PHE314      0.0534
    143  CG        29.4820   34.4950   47.3850 C.ar  314  PHE314     -0.0203
    144  CD1       30.1330   35.7220   47.4360 C.ar  314  PHE314     -0.0042
    145  CD2       28.3620   34.3640   46.5710 C.ar  314  PHE314     -0.0042
    146  CE1       29.6750   36.8050   46.6890 C.ar  314  PHE314     -0.0003
    147  CE2       27.8960   35.4390   45.8190 C.ar  314  PHE314     -0.0003
    148  CZ        28.5540   36.6630   45.8780 C.ar  314  PHE314     -0.0000
@<TRIPOS>BOND
     1    13    12    2
     2    10    11    1
     3    11    12    1
     4    11    14    1
     5    14    15    1
     6   136   134    1
     7    15    16    1
     8   132   133    2
     9   132   131    1
    10     1     2    1
    11     3     2    1
    12     3     4    2
    13     2     5    1
    14   131   134    1
    15   131   130    1
    16    16    17    1
    17   134   135    1
    18   124   123    2
    19    25    24    1
    20   137   135    1
    21   130   123   am
    22   123   122    1
    23     5     6    1
    24     9     8    1
    25     7     6    1
    26     7     8    1
    27    24    23    1
    28   120   119    1
    29   125   122    1
    30   125   126    1
    31    23    22    1
    32   122   121    1
    33   119   116    1
    34   121   117   am
    35   128   127    2
    36   127   126    1
    37   127   129   am
    38   117   116    1
    39   117   118    2
    40    22    19    1
    41   116   115    1
    42    18    19    1
    43    45    44    1
    44    19    20    1
    45   115   111   am
    46   147   148   ar
    47   147   145   ar
    48    36    37    1
    49   148   146   ar
    50    44    46    1
    51    44    43    2
    52   138   139    1
    53    20    21    2
    54   111   112    2
    55   111   110    1
    56    29    28    2
    57   145   143   ar
    58   146   144   ar
    59    42    43    1
    60    42    41    1
    61    37    40    1
    62    37    38    1
    63    32    34   ar
    64    32    31   ar
    65    34    35   ar
    66    27    28    1
    67    27    26    1
    68    27    30    1
    69   143   144   ar
    70   143   142    1
    71   110   113    1
    72   110   109    1
    73   113   114    1
    74    40    41    1
    75   139   142    1
    76   139   140    1
    77    38    39    2
    78    98    99   ar
    79    98    96   ar
    80    31    30    1
    81    31    33   ar
    82    35    33   ar
    83    99    97   ar
    84   141   140    2
    85   103   102    2
    86    96    94   ar
    87    97    95   ar
    88    53    52   ar
    89   102   101    1
    90   102   105   am
    91   104   101    1
    92   108   107    2
    93   101   100    1
    94    94    95   ar
    95    94    93    1
    96    60    59    1
    97    47    48    1
    98   107   106    1
    99    52    54   ar
   100    52    51    1
   101   106   105    1
   102    59    61    1
   103    59    56    1
   104    93    90    1
   105    88    85    1
   106    48    51    1
   107    48    49    1
   108    55    56    1
   109    55    49   am
   110    87    86    2
   111    90    89    1
   112    90    91    1
   113    86    89   am
   114    86    85    1
   115    56    57    1
   116    49    50    2
   117    85    84    1
   118    58    57    2
   119    92    91    2
   120    75    73    1
   121    82    81    1
   122    74    73    1
   123    83    81    1
   124    73    72    1
   125    81    80    1
   126    67    66    1
   127    80    77    1
   128    72    69    1
   129    66    63    1
   130    69    68    1
   131    69    70    1
   132    65    64    2
   133    77    78    1
   134    77    76    1
   135    68    64   am
   136    64    63    1
   137    71    70    2
   138    63    62    1
   139    78    79    2
