@<TRIPOS>MOLECULE
tmp/1wdlA01.pdb
 208 201 0 0 0
SMALL
GASTEIGER

@<TRIPOS>ATOM
      1  N         28.9010   79.8880   58.4220 N.3   430  SER430     -0.1202
      2  CA        28.5590   78.8000   59.3300 C.3   430  SER430      0.2020
      3  C         28.9340   79.0840   60.7820 C.2   430  SER430      0.2619
      4  O         28.3520   78.5040   61.6990 O.2   430  SER430     -0.2717
      5  CB        29.2420   77.5060   58.8770 C.3   430  SER430      0.2103
      6  OG        30.6530   77.6300   58.9290 O.3   430  SER430     -0.2182
      7  N         29.8990   79.9730   60.9930 N.am  431  THR431     -0.1952
      8  CA        30.3330   80.2920   62.3490 C.3   431  THR431      0.1897
      9  C         30.1780   81.7660   62.7060 C.2   431  THR431      0.2313
     10  O         30.6850   82.2130   63.7340 O.2   431  THR431     -0.2863
     11  CB        31.8090   79.9030   62.5650 C.3   431  THR431      0.1794
     12  OG1       32.6550   80.8160   61.8560 O.3   431  THR431     -0.2208
     13  CG2       32.0640   78.4920   62.0570 C.3   431  THR431      0.0378
     14  N         25.4360   72.8130   53.0000 N.3   453  PHE453     -0.1227
     15  CA        26.4040   71.8850   53.5710 C.3   453  PHE453      0.1736
     16  C         27.2700   71.2300   52.5030 C.2   453  PHE453      0.2595
     17  O         26.7670   70.6980   51.5130 O.2   453  PHE453     -0.2718
     18  CB        25.6920   70.8110   54.3990 C.3   453  PHE453      0.0547
     19  CG        25.1330   71.3200   55.6990 C.ar  453  PHE453     -0.0202
     20  CD1       24.1000   72.2510   55.7120 C.ar  453  PHE453     -0.0042
     21  CD2       25.6530   70.8800   56.9120 C.ar  453  PHE453     -0.0042
     22  CE1       23.5950   72.7380   56.9160 C.ar  453  PHE453     -0.0003
     23  CE2       25.1550   71.3610   58.1200 C.ar  453  PHE453     -0.0003
     24  CZ        24.1240   72.2920   58.1220 C.ar  453  PHE453     -0.0000
     25  N         28.5790   71.2780   52.7210 N.am  454  ASN454     -0.1961
     26  CA        29.5580   70.7090   51.8020 C.3   454  ASN454      0.1804
     27  C         29.4260   69.1860   51.7310 C.2   454  ASN454      0.2463
     28  O         29.4810   68.5050   52.7560 O.2   454  ASN454     -0.2730
     29  CB        30.9650   71.0880   52.2760 C.3   454  ASN454      0.1195
     30  CG        32.0320   70.7990   51.2430 C.2   454  ASN454      0.2630
     31  OD1       32.2230   69.6570   50.8290 O.2   454  ASN454     -0.2716
     32  ND2       32.7420   71.8410   50.8240 N.am  454  ASN454     -0.0877
     33  N         29.2450   68.6310   50.5200 N.am  455  PRO455     -0.2727
     34  CA        29.1490   69.3060   49.2180 C.3   455  PRO455      0.1402
     35  C         27.7370   69.8290   48.9500 C.2   455  PRO455      0.2269
     36  O         26.7510   69.1780   49.2950 O.2   455  PRO455     -0.2865
     37  CB        29.5440   68.2100   48.2250 C.3   455  PRO455      0.0296
     38  CG        30.3250   67.2270   49.0610 C.3   455  PRO455      0.0237
     39  CD        29.5240   67.2010   50.3260 C.3   455  PRO455      0.0939
     40  N         24.5460   67.1070   50.1310 N.3   459  MET459     -0.1231
     41  CA        23.7020   67.3350   51.3000 C.3   459  MET459      0.1687
     42  C         22.3770   68.0190   50.9650 C.2   459  MET459      0.2434
     43  O         22.3450   69.0220   50.2520 O.2   459  MET459     -0.2733
     44  CB        24.4680   68.1590   52.3350 C.3   459  MET459      0.0400
     45  CG        25.8330   67.5820   52.6810 C.3   459  MET459      0.0596
     46  SD        25.7550   65.8660   53.2380 S.3   459  MET459     -0.1393
     47  CE        25.6380   66.0880   55.0190 C.3   459  MET459      0.0692
     48  N         21.2650   67.4760   51.4830 N.am  460  PRO460     -0.2729
     49  CA        19.9020   67.9820   51.2760 C.3   460  PRO460      0.1401
     50  C         19.5350   69.2470   52.0550 C.2   460  PRO460      0.2269
     51  O         19.0060   70.2030   51.4870 O.2   460  PRO460     -0.2865
     52  CB        19.0230   66.8000   51.6960 C.3   460  PRO460      0.0296
     53  CG        19.9300   65.6060   51.5680 C.3   460  PRO460      0.0237
     54  CD        21.2230   66.1400   52.1000 C.3   460  PRO460      0.0939
     55  N         26.3670   78.4870   66.0840 N.3   497  GLY497     -0.1225
     56  CA        26.3010   77.0900   65.7030 C.3   497  GLY497      0.1811
     57  C         24.9560   76.7800   65.0830 C.2   497  GLY497      0.2280
     58  O         24.7210   75.6760   64.5860 O.2   497  GLY497     -0.2866
     59  N         22.0090   72.6610   63.5340 N.3   500  VAL500     -0.1231
     60  CA        22.8170   71.4770   63.2610 C.3   500  VAL500      0.1692
     61  C         24.1590   71.4580   63.9920 C.2   500  VAL500      0.2592
     62  O         24.3550   70.6780   64.9250 O.2   500  VAL500     -0.2718
     63  CB        23.0750   71.3310   61.7470 C.3   500  VAL500      0.0266
     64  CG1       23.9420   70.1110   61.4780 C.3   500  VAL500      0.0020
     65  CG2       21.7520   71.2140   61.0080 C.3   500  VAL500      0.0020
     66  N         25.0800   72.3130   63.5630 N.am  501  ASN501     -0.1974
     67  CA        26.4050   72.3810   64.1690 C.3   501  ASN501      0.1688
     68  C         26.3760   72.5330   65.6850 C.2   501  ASN501      0.2292
     69  O         27.1560   71.8930   66.3920 O.2   501  ASN501     -0.2864
     70  CB        27.2030   73.5300   63.5490 C.3   501  ASN501      0.1181
     71  CG        27.6470   73.2270   62.1340 C.2   501  ASN501      0.2629
     72  OD1       26.8410   72.8450   61.2850 O.2   501  ASN501     -0.2716
     73  ND2       28.9380   73.3990   61.8700 N.am  501  ASN501     -0.0877
     74  N         25.7220   69.2040   66.8350 N.3   504  LEU504     -0.1231
     75  CA        26.6930   68.2190   66.3790 C.3   504  LEU504      0.1693
     76  C         27.9380   68.0940   67.2500 C.2   504  LEU504      0.2592
     77  O         28.4770   66.9980   67.3990 O.2   504  LEU504     -0.2718
     78  CB        27.0920   68.5140   64.9300 C.3   504  LEU504      0.0284
     79  CG        28.0390   67.5220   64.2510 C.3   504  LEU504      0.0019
     80  CD1       27.6940   67.4070   62.7760 C.3   504  LEU504      0.0001
     81  CD2       29.4770   67.9740   64.4400 C.3   504  LEU504      0.0001
     82  N         28.4000   69.1980   67.8320 N.am  505  PHE505     -0.1976
     83  CA        29.5920   69.1260   68.6670 C.3   505  PHE505      0.1639
     84  C         29.3670   68.5970   70.0780 C.2   505  PHE505      0.2290
     85  O         30.2330   67.9160   70.6270 O.2   505  PHE505     -0.2864
     86  CB        30.3200   70.4720   68.7010 C.3   505  PHE505      0.0560
     87  CG        31.4430   70.5590   67.7080 C.ar  505  PHE505     -0.0200
     88  CD1       31.1820   70.7480   66.3550 C.ar  505  PHE505     -0.0042
     89  CD2       32.7610   70.3740   68.1150 C.ar  505  PHE505     -0.0042
     90  CE1       32.2160   70.7480   65.4210 C.ar  505  PHE505     -0.0003
     91  CE2       33.8020   70.3720   67.1900 C.ar  505  PHE505     -0.0003
     92  CZ        33.5290   70.5590   65.8400 C.ar  505  PHE505     -0.0000
     93  N         25.2810   57.2240   59.7850 N.3   534  PRO534     -0.2102
     94  CA        25.9670   56.9920   58.5110 C.3   534  PRO534      0.1504
     95  C         27.4480   56.7360   58.7520 C.2   534  PRO534      0.2575
     96  O         27.9810   55.6900   58.3820 O.2   534  PRO534     -0.2718
     97  CB        25.7270   58.2950   57.7530 C.3   534  PRO534      0.0282
     98  CG        24.3920   58.7300   58.2610 C.3   534  PRO534      0.0208
     99  CD        24.5240   58.4860   59.7450 C.3   534  PRO534      0.0893
    100  N         28.1020   57.7060   59.3790 N.am  535  MET535     -0.1980
    101  CA        29.5200   57.6050   59.6900 C.3   535  MET535      0.1605
    102  C         29.7290   57.6150   61.1960 C.2   535  MET535      0.2287
    103  O         28.8960   58.1270   61.9450 O.2   535  MET535     -0.2864
    104  CB        30.2880   58.7650   59.0550 C.3   535  MET535      0.0413
    105  CG        30.4600   58.6410   57.5520 C.3   535  MET535      0.0598
    106  SD        31.4200   59.9930   56.8520 S.3   535  MET535     -0.1393
    107  CE        30.3400   60.5250   55.5240 C.3   535  MET535      0.0692
    108  N         33.9570   60.4410   61.1860 N.3   540  LEU540     -0.1245
    109  CA        33.3530   61.6990   60.7660 C.3   540  LEU540      0.1561
    110  C         34.3460   62.8280   61.0220 C.2   540  LEU540      0.2260
    111  O         34.5780   63.6740   60.1590 O.2   540  LEU540     -0.2867
    112  CB        32.0600   61.9570   61.5470 C.3   540  LEU540      0.0270
    113  CG        30.9140   62.6470   60.7960 C.3   540  LEU540      0.0019
    114  CD1       29.7710   62.9210   61.7630 C.3   540  LEU540      0.0001
    115  CD2       31.3960   63.9420   60.1660 C.3   540  LEU540      0.0001
    116  N         36.7740   63.1000   58.3580 N.3   543  VAL543     -0.1231
    117  CA        36.1990   63.6450   57.1360 C.3   543  VAL543      0.1692
    118  C         36.1060   65.1630   57.2340 C.2   543  VAL543      0.2591
    119  O         36.5110   65.8780   56.3190 O.2   543  VAL543     -0.2718
    120  CB        34.7940   63.0670   56.8790 C.3   543  VAL543      0.0266
    121  CG1       34.2640   63.5620   55.5460 C.3   543  VAL543      0.0020
    122  CG2       34.8490   61.5460   56.8970 C.3   543  VAL543      0.0020
    123  N         35.5740   65.6500   58.3510 N.am  544  VAL544     -0.1980
    124  CA        35.4370   67.0850   58.5670 C.3   544  VAL544      0.1595
    125  C         36.8100   67.7320   58.7010 C.2   544  VAL544      0.2287
    126  O         37.0280   68.8550   58.2410 O.2   544  VAL544     -0.2864
    127  CB        34.6240   67.3790   59.8450 C.3   544  VAL544      0.0276
    128  CG1       34.5650   68.8790   60.0910 C.3   544  VAL544      0.0022
    129  CG2       33.2260   66.8060   59.7110 C.3   544  VAL544      0.0022
    130  N         39.6030   71.5520   61.3840 N.3   548  THR548     -0.1218
    131  CA        38.3080   72.2150   61.3060 C.3   548  THR548      0.1862
    132  C         37.5840   72.0470   62.6370 C.2   548  THR548      0.2287
    133  O         37.1730   73.0260   63.2620 O.2   548  THR548     -0.2866
    134  CB        37.4330   71.6100   60.1880 C.3   548  THR548      0.1770
    135  OG1       38.1570   71.6210   58.9500 O.3   548  THR548     -0.2211
    136  CG2       36.1540   72.4140   60.0200 C.3   548  THR548      0.0375
    137  N         38.8120   74.2160   65.3310 N.3   551  HIS551     -0.1226
    138  CA        38.3770   75.6080   65.2570 C.3   551  HIS551      0.1752
    139  C         36.9350   75.7330   65.7310 C.2   551  HIS551      0.2596
    140  O         36.5990   76.6360   66.4980 O.2   551  HIS551     -0.2718
    141  CB        38.4770   76.1320   63.8220 C.3   551  HIS551      0.0759
    142  CG        37.8380   77.4730   63.6260 C.ar  551  HIS551      0.0818
    143  ND1       38.2910   78.6140   64.2520 N.ar  551  HIS551     -0.2268
    144  CD2       36.7680   77.8510   62.8860 C.ar  551  HIS551      0.1154
    145  CE1       37.5280   79.6360   63.9070 C.ar  551  HIS551      0.1986
    146  NE2       36.5960   79.2000   63.0800 N.ar  551  HIS551     -0.2212
    147  N         36.0870   74.8220   65.2640 N.am  552  GLY552     -0.1957
    148  CA        34.6870   74.8440   65.6470 C.3   552  GLY552      0.1869
    149  C         34.4910   74.7370   67.1460 C.2   552  GLY552      0.2309
    150  O         33.5720   75.3360   67.7050 O.2   552  GLY552     -0.2863
    151  N         34.6800   78.0210   68.6340 N.3   555  VAL555     -0.1231
    152  CA        33.5180   78.8100   68.2450 C.3   555  VAL555      0.1692
    153  C         32.3280   78.5250   69.1560 C.2   555  VAL555      0.2591
    154  O         31.5650   79.4290   69.4960 O.2   555  VAL555     -0.2718
    155  CB        33.1020   78.5120   66.7870 C.3   555  VAL555      0.0266
    156  CG1       31.9240   79.3900   66.3890 C.3   555  VAL555      0.0020
    157  CG2       34.2790   78.7440   65.8540 C.3   555  VAL555      0.0020
    158  N         32.1740   77.2640   69.5460 N.am  556  MET556     -0.1979
    159  CA        31.0740   76.8690   70.4160 C.3   556  MET556      0.1605
    160  C         31.3950   77.1520   71.8780 C.2   556  MET556      0.2287
    161  O         30.5070   77.4830   72.6640 O.2   556  MET556     -0.2864
    162  CB        30.7600   75.3820   70.2360 C.3   556  MET556      0.0413
    163  CG        30.3190   75.0080   68.8300 C.3   556  MET556      0.0598
    164  SD        28.9860   76.0640   68.2210 S.3   556  MET556     -0.1393
    165  CE        27.6260   75.5210   69.2430 C.3   556  MET556      0.0692
    166  N         18.1670   65.0590   60.8820 N.3   659  VAL659     -0.1231
    167  CA        18.0040   63.9500   59.9510 C.3   659  VAL659      0.1692
    168  C         18.6980   64.2360   58.6210 C.2   659  VAL659      0.2592
    169  O         19.3470   63.3600   58.0480 O.2   659  VAL659     -0.2718
    170  CB        16.5110   63.6760   59.6760 C.3   659  VAL659      0.0266
    171  CG1       16.3620   62.5260   58.6960 C.3   659  VAL659      0.0020
    172  CG2       15.7960   63.3580   60.9760 C.3   659  VAL659      0.0020
    173  N         18.5600   65.4670   58.1410 N.am  660  TYR660     -0.1962
    174  CA        19.1540   65.8800   56.8730 C.3   660  TYR660      0.1771
    175  C         20.5600   66.4650   57.0150 C.2   660  TYR660      0.2620
    176  O         21.3550   66.4140   56.0760 O.2   660  TYR660     -0.2715
    177  CB        18.2500   66.9140   56.1910 C.3   660  TYR660      0.0574
    178  CG        16.9390   66.3750   55.6440 C.ar  660  TYR660     -0.0198
    179  CD1       15.7710   67.1370   55.7120 C.ar  660  TYR660     -0.0009
    180  CD2       16.8740   65.1300   55.0170 C.ar  660  TYR660     -0.0009
    181  CE1       14.5720   66.6750   55.1700 C.ar  660  TYR660      0.0417
    182  CE2       15.6780   64.6580   54.4700 C.ar  660  TYR660      0.0417
    183  CZ        14.5330   65.4360   54.5510 C.ar  660  TYR660      0.1957
    184  OH        13.3520   64.9800   54.0080 O.3   660  TYR660     -0.2866
    185  N         20.8650   67.0150   58.1870 N.am  661  GLY661     -0.1940
    186  CA        22.1690   67.6200   58.4010 C.3   661  GLY661      0.2014
    187  C         23.2550   66.7220   58.9640 C.2   661  GLY661      0.2639
    188  O         24.1570   66.3000   58.2390 O.2   661  GLY661     -0.2714
    189  N         23.1780   66.4390   60.2600 N.am  662  ILE662     -0.1963
    190  CA        24.1660   65.5950   60.9230 C.3   662  ILE662      0.1727
    191  C         24.0380   64.1360   60.4970 C.2   662  ILE662      0.2616
    192  O         24.9710   63.3480   60.6540 O.2   662  ILE662     -0.2715
    193  CB        24.0240   65.6690   62.4590 C.3   662  ILE662      0.0290
    194  CG1       22.6620   65.1180   62.8850 C.3   662  ILE662      0.0022
    195  CG2       24.1770   67.1080   62.9250 C.3   662  ILE662      0.0023
    196  CD1       22.4490   65.0880   64.3820 C.3   662  ILE662      0.0001
    197  N         22.8740   63.7830   59.9590 N.am  663  GLY663     -0.1955
    198  CA        22.6450   62.4190   59.5240 C.3   663  GLY663      0.1869
    199  C         22.0830   61.5650   60.6420 C.2   663  GLY663      0.2309
    200  O         22.5510   60.4530   60.8810 O.2   663  GLY663     -0.2863
    201  N         17.4150   57.9090   60.4900 N.3   666  LEU666     -0.1245
    202  CA        16.0710   58.1730   59.9970 C.3   666  LEU666      0.1561
    203  C         14.9190   57.4190   60.6570 C.2   666  LEU666      0.2260
    204  O         13.9710   58.0370   61.1390 O.2   666  LEU666     -0.2867
    205  CB        16.0430   57.9530   58.4820 C.3   666  LEU666      0.0270
    206  CG        17.1700   58.6950   57.7510 C.3   666  LEU666      0.0019
    207  CD1       18.4550   57.8750   57.8180 C.3   666  LEU666      0.0001
    208  CD2       16.7850   58.9390   56.3060 C.3   666  LEU666      0.0001
@<TRIPOS>BOND
     1    37    38    1
     2    37    34    1
     3    35    34    1
     4    35    36    2
     5    38    39    1
     6    34    33    1
     7    40    41    1
     8    43    42    2
     9    39    33    1
    10    33    27   am
    11    32    30   am
    12    31    30    2
    13    42    41    1
    14    42    48   am
    15    30    29    1
    16    49    48    1
    17    49    52    1
    18    49    50    1
    19    41    44    1
    20    48    54    1
    21    51    50    2
    22    17    16    2
    23    53    52    1
    24    53    54    1
    25    27    26    1
    26    27    28    2
    27    26    29    1
    28    26    25    1
    29    44    45    1
    30    16    25   am
    31    16    15    1
    32    45    46    1
    33    14    15    1
    34    46    47    1
    35    15    18    1
    36   184   183    1
    37    18    19    1
    38   182   183   ar
    39   182   180   ar
    40   183   181   ar
    41   180   178   ar
    42   181   179   ar
    43   107   106    1
    44   121   120    1
    45   178   179   ar
    46   178   177    1
    47    19    20   ar
    48    19    21   ar
    49    20    22   ar
    50   176   175    2
    51   177   174    1
    52   208   206    1
    53   119   118    2
    54   106   105    1
    55   174   175    1
    56   174   173    1
    57   120   122    1
    58   120   117    1
    59    21    23   ar
    60    22    24   ar
    61   175   185   am
    62   117   118    1
    63   117   116    1
    64   118   123   am
    65   105   104    1
    66   206   207    1
    67   206   205    1
    68    97    98    1
    69    97    94    1
    70   169   168    2
    71    23    24   ar
    72   173   168   am
    73   185   186    1
    74   188   187    2
    75   126   125    2
    76    98    99    1
    77   123   124    1
    78    96    95    2
    79   186   187    1
    80     1     2    1
    81   205   202    1
    82    94    95    1
    83    94    93    1
    84   124   125    1
    85   124   127    1
    86   168   167    1
    87   171   170    1
    88    95   100   am
    89     5     6    1
    90     5     2    1
    91   135   134    1
    92   187   189   am
    93   104   101    1
    94     2     3    1
    95   100   101    1
    96   198   197    1
    97   198   199    1
    98   170   167    1
    99   170   172    1
   100   101   102    1
   101   129   127    1
   102    99    93    1
   103   127   128    1
   104   167   166    1
   105   197   191   am
   106   202   201    1
   107   202   203    1
   108   136   134    1
   109   111   110    2
   110   115   113    1
   111   134   131    1
   112   189   190    1
   113   191   192    2
   114   191   190    1
   115   199   200    2
   116   203   204    2
   117   109   110    1
   118   109   108    1
   119   109   112    1
   120     3     7   am
   121     3     4    2
   122   113   112    1
   123   113   114    1
   124   190   193    1
   125     7     8    1
   126    65    63    1
   127   102   103    2
   128    72    71    2
   129   131   130    1
   130   131   132    1
   131    64    63    1
   132    63    60    1
   133    12    11    1
   134    73    71   am
   135    13    11    1
   136    71    70    1
   137     8    11    1
   138     8     9    1
   139   193   194    1
   140   193   195    1
   141   132   133    2
   142     9    10    2
   143    80    79    1
   144   194   196    1
   145   144   146   ar
   146   144   142   ar
   147   146   145   ar
   148    60    59    1
   149    60    61    1
   150    70    67    1
   151    66    61   am
   152    66    67    1
   153   142   141    1
   154   142   143   ar
   155   141   138    1
   156   145   143   ar
   157    61    62    2
   158    67    68    1
   159    79    81    1
   160    79    78    1
   161    58    57    2
   162    78    75    1
   163    57    56    1
   164   138   137    1
   165   138   139    1
   166   147   148    1
   167   147   139   am
   168    90    92   ar
   169    90    88   ar
   170   148   149    1
   171    68    69    2
   172    56    55    1
   173   139   140    2
   174    92    91   ar
   175   157   155    1
   176    88    87   ar
   177    75    74    1
   178    75    76    1
   179   156   155    1
   180   155   152    1
   181   149   150    2
   182    91    89   ar
   183    76    77    2
   184    76    82   am
   185    87    89   ar
   186    87    86    1
   187    82    83    1
   188   164   163    1
   189   164   165    1
   190   152   151    1
   191   152   153    1
   192    83    86    1
   193    83    84    1
   194   163   162    1
   195   153   154    2
   196   153   158   am
   197   158   159    1
   198    84    85    2
   199   162   159    1
   200   159   160    1
   201   160   161    2
