@<TRIPOS>MOLECULE
tmp/1wdlD00.pdb
 210 196 0 0 0
SMALL
GASTEIGER

@<TRIPOS>ATOM
      1  N          9.3390   56.0590   18.5070 N.3    21  LYS21      -0.1245
      2  CA         9.2860   57.4980   18.7320 C.3    21  LYS21       0.1561
      3  C          7.9470   57.9210   19.3290 C.2    21  LYS21       0.2260
      4  O          7.1420   58.5780   18.6680 O.2    21  LYS21      -0.2867
      5  CB         9.5240   58.2450   17.4160 C.3    21  LYS21       0.0271
      6  CG         8.6160   57.9310   16.2830 C.3    21  LYS21       0.0035
      7  CD         9.2970   58.6010   15.0310 C.3    21  LYS21       0.0206
      8  CE         8.3490   58.6560   13.8540 C.3    21  LYS21       0.1093
      9  NZ         8.0450   57.2960   13.3620 N.3    21  LYS21      -0.1314
     10  N         20.6860   40.7400   14.6500 N.3    94  CYS94      -0.1235
     11  CA        19.3790   40.5810   14.0350 C.3    94  CYS94       0.1677
     12  C         18.7710   39.1890   14.1950 C.2    94  CYS94       0.2270
     13  O         17.6180   39.0540   14.6040 O.2    94  CYS94      -0.2867
     14  CB        19.4830   40.9410   12.5560 C.3    94  CYS94       0.0956
     15  SG        20.4120   42.4660   12.2920 S.3    94  CYS94      -0.0801
     16  N         13.7760   49.1830   21.3910 N.3   124  MET124     -0.1245
     17  CA        14.6640   50.2200   20.8870 C.3   124  MET124      0.1570
     18  C         14.2400   51.6280   21.2810 C.2   124  MET124      0.2261
     19  O         14.9010   52.6040   20.9320 O.2   124  MET124     -0.2867
     20  CB        14.7710   50.1130   19.3650 C.3   124  MET124      0.0387
     21  CG        15.3080   48.7720   18.8930 C.3   124  MET124      0.0595
     22  SD        15.5400   48.6910   17.1110 S.3   124  MET124     -0.1393
     23  CE        13.9150   48.2080   16.5910 C.3   124  MET124      0.0692
     24  N         19.6010   51.8770   19.7060 N.3   129  MET129     -0.1245
     25  CA        20.7520   51.1610   19.1720 C.3   129  MET129      0.1570
     26  C         22.0760   51.9020   19.3420 C.2   129  MET129      0.2261
     27  O         23.0720   51.3060   19.7500 O.2   129  MET129     -0.2867
     28  CB        20.5190   50.8270   17.6930 C.3   129  MET129      0.0387
     29  CG        20.2710   52.0310   16.7940 C.3   129  MET129      0.0595
     30  SD        19.7690   51.5490   15.1250 S.3   129  MET129     -0.1393
     31  CE        21.3550   51.1910   14.3660 C.3   129  MET129      0.0692
     32  N         24.9780   49.5930    8.9500 N.3   150  MET150     -0.1245
     33  CA        24.0440   48.7910    8.1670 C.3   150  MET150      0.1570
     34  C         23.5630   49.5000    6.9070 C.2   150  MET150      0.2261
     35  O         23.4920   48.9000    5.8340 O.2   150  MET150     -0.2867
     36  CB        22.8370   48.4300    9.0320 C.3   150  MET150      0.0387
     37  CG        23.1990   47.8920   10.4070 C.3   150  MET150      0.0595
     38  SD        23.9620   46.2640   10.3480 S.3   150  MET150     -0.1393
     39  CE        22.5560   45.2260   10.7610 C.3   150  MET150      0.0692
     40  N          3.9220   47.6180    2.8910 N.3   176  HIS176     -0.1241
     41  CA         2.8930   48.3220    3.6460 C.3   176  HIS176      0.1621
     42  C          1.5060   47.8440    3.2320 C.2   176  HIS176      0.2264
     43  O          0.6880   47.4870    4.0790 O.2   176  HIS176     -0.2867
     44  CB         3.0070   49.8350    3.4290 C.3   176  HIS176      0.0745
     45  CG         4.0110   50.5000    4.3190 C.ar  176  HIS176      0.0817
     46  ND1        3.8440   50.6020    5.6830 N.ar  176  HIS176     -0.2268
     47  CD2        5.1950   51.0970    4.0400 C.ar  176  HIS176      0.1154
     48  CE1        4.8790   51.2330    6.2060 C.ar  176  HIS176      0.1986
     49  NE2        5.7140   51.5450    5.2310 N.ar  176  HIS176     -0.2212
     50  N          1.7220   51.8790    7.5280 N.3   214  ARG214     -0.1245
     51  CA         1.2630   53.1450    6.9590 C.3   214  ARG214      0.1563
     52  C          0.6500   52.8960    5.5810 C.2   214  ARG214      0.2260
     53  O          1.3510   52.8990    4.5700 O.2   214  ARG214     -0.2867
     54  CB         2.4340   54.1240    6.8360 C.3   214  ARG214      0.0307
     55  CG         3.2510   54.2550    8.1100 C.3   214  ARG214      0.0489
     56  CD         4.3610   55.2890    7.9910 C.3   214  ARG214      0.2205
     57  NE         3.8480   56.6550    7.9510 N.pl3 214  ARG214     -0.0865
     58  CZ         4.5870   57.7350    8.1840 C.cat 214  ARG214      0.5346
     59  NH1        5.8740   57.6080    8.4770 N.pl3 214  ARG214      0.1354
     60  NH2        4.0410   58.9430    8.1280 N.pl3 214  ARG214      0.1354
     61  N         -1.0610   54.7460    3.6580 N.3   216  ASP216     -0.1225
     62  CA        -0.9380   55.8730    2.7370 C.3   216  ASP216      0.1805
     63  C          0.3850   55.8900    1.9750 C.2   216  ASP216      0.2598
     64  O          0.5970   56.7390    1.1090 O.2   216  ASP216     -0.2718
     65  CB        -1.0960   57.1930    3.4970 C.3   216  ASP216      0.1424
     66  CG         0.0380   57.4440    4.4710 C.2   216  ASP216      0.3668
     67  OD1        0.1870   56.6590    5.4300 O.co2 216  ASP216     -0.2456
     68  OD2        0.7850   58.4270    4.2760 O.co2 216  ASP216     -0.2456
     69  N          1.2710   54.9540    2.2980 N.am  217  THR217     -0.1953
     70  CA         2.5730   54.8720    1.6420 C.3   217  THR217      0.1897
     71  C          2.4410   54.5940    0.1470 C.2   217  THR217      0.2313
     72  O          2.1600   53.4680   -0.2640 O.2   217  THR217     -0.2863
     73  CB         3.4450   53.7680    2.2760 C.3   217  THR217      0.1794
     74  OG1        3.6570   54.0620    3.6620 O.3   217  THR217     -0.2208
     75  CG2        4.7890   53.6790    1.5720 C.3   217  THR217      0.0378
     76  N          4.6880   59.3060   -2.3480 N.3   221  SER221     -0.1202
     77  CA         5.0820   59.7300   -1.0090 C.3   221  SER221      0.2020
     78  C          6.4760   59.2350   -0.6370 C.2   221  SER221      0.2618
     79  O          7.1530   59.8370    0.1970 O.2   221  SER221     -0.2717
     80  CB         4.0700   59.2280    0.0240 C.3   221  SER221      0.2103
     81  OG         4.0870   57.8150    0.1130 O.3   221  SER221     -0.2182
     82  N          6.9010   58.1360   -1.2530 N.am  222  LEU222     -0.1979
     83  CA         8.2170   57.5720   -0.9760 C.3   222  LEU222      0.1596
     84  C          9.3020   58.2260   -1.8250 C.2   222  LEU222      0.2287
     85  O         10.4630   58.2880   -1.4190 O.2   222  LEU222     -0.2864
     86  CB         8.2100   56.0600   -1.2210 C.3   222  LEU222      0.0297
     87  CG         7.4710   55.1990   -0.1920 C.3   222  LEU222      0.0022
     88  CD1        7.4340   53.7520   -0.6580 C.3   222  LEU222      0.0001
     89  CD2        8.1670   55.3070    1.1570 C.3   222  LEU222      0.0001
     90  N         11.1010   61.3310   -0.1020 N.3   225  LEU225     -0.1245
     91  CA        12.1150   61.1680    0.9320 C.3   225  LEU225      0.1561
     92  C         13.5130   61.3090    0.3380 C.2   225  LEU225      0.2260
     93  O         13.7240   61.0400   -0.8440 O.2   225  LEU225     -0.2867
     94  CB        11.9710   59.7940    1.5890 C.3   225  LEU225      0.0270
     95  CG        10.5580   59.4240    2.0510 C.3   225  LEU225      0.0019
     96  CD1       10.5480   57.9900    2.5490 C.3   225  LEU225      0.0001
     97  CD2       10.0980   60.3800    3.1410 C.3   225  LEU225      0.0001
     98  N         18.9780   58.4700    3.0910 N.3   228  ALA228     -0.1231
     99  CA        19.2990   58.5060    4.5110 C.3   228  ALA228      0.1694
    100  C         20.7560   58.1990    4.8440 C.2   228  ALA228      0.2592
    101  O         21.2970   58.7350    5.8110 O.2   228  ALA228     -0.2718
    102  CB        18.3840   57.5490    5.2670 C.3   228  ALA228      0.0304
    103  N         21.3950   57.3440    4.0510 N.am  229  PHE229     -0.1976
    104  CA        22.7800   56.9800    4.3220 C.3   229  PHE229      0.1639
    105  C         23.7910   57.4990    3.3070 C.2   229  PHE229      0.2290
    106  O         24.9870   57.2340    3.4280 O.2   229  PHE229     -0.2864
    107  CB        22.8970   55.4600    4.4440 C.3   229  PHE229      0.0560
    108  CG        21.9170   54.8590    5.4090 C.ar  229  PHE229     -0.0200
    109  CD1       20.7250   54.3040    4.9570 C.ar  229  PHE229     -0.0042
    110  CD2       22.1670   54.8830    6.7770 C.ar  229  PHE229     -0.0042
    111  CE1       19.7950   53.7800    5.8530 C.ar  229  PHE229     -0.0003
    112  CE2       21.2450   54.3640    7.6810 C.ar  229  PHE229     -0.0003
    113  CZ        20.0560   53.8110    7.2180 C.ar  229  PHE229     -0.0000
    114  N         14.5720   56.2300    4.4430 N.3   238  ALA238     -0.1231
    115  CA        13.9110   55.7750    5.6600 C.3   238  ALA238      0.1694
    116  C         12.6760   54.9580    5.3050 C.2   238  ALA238      0.2592
    117  O         12.2560   54.0840    6.0620 O.2   238  ALA238     -0.2718
    118  CB        13.5170   56.9700    6.5170 C.3   238  ALA238      0.0304
    119  N         12.1050   55.2490    4.1400 N.am  239  GLY239     -0.1957
    120  CA        10.9190   54.5440    3.6940 C.3   239  GLY239      0.1869
    121  C         11.1680   53.1130    3.2570 C.2   239  GLY239      0.2309
    122  O         10.2910   52.2620    3.4010 O.2   239  GLY239     -0.2863
    123  N         13.6920   51.3540    4.4710 N.3   241  SER241     -0.1202
    124  CA        14.4400   50.7340    5.5580 C.3   241  SER241      0.2020
    125  C         13.4690   50.2260    6.6160 C.2   241  SER241      0.2619
    126  O         12.3450   50.7190    6.7220 O.2   241  SER241     -0.2717
    127  CB        15.3980   51.7450    6.1910 C.3   241  SER241      0.2103
    128  OG        16.3380   52.2250    5.2460 O.3   241  SER241     -0.2182
    129  N         13.9000   49.2370    7.3920 N.am  242  SER242     -0.1937
    130  CA        13.0610   48.6840    8.4480 C.3   242  SER242      0.2055
    131  C         12.8030   49.7710    9.4880 C.2   242  SER242      0.2643
    132  O         13.5780   50.7210    9.6060 O.2   242  SER242     -0.2714
    133  CB        13.7480   47.4800    9.0970 C.3   242  SER242      0.2130
    134  OG        15.0360   47.8230    9.5800 O.3   242  SER242     -0.2179
    135  N         11.7170   49.6320   10.2410 N.am  243  GLN243     -0.1963
    136  CA        11.3720   50.6260   11.2500 C.3   243  GLN243      0.1733
    137  C         11.8970   50.3100   12.6430 C.2   243  GLN243      0.2616
    138  O         12.0160   49.1460   13.0300 O.2   243  GLN243     -0.2715
    139  CB         9.8550   50.7950   11.3340 C.3   243  GLN243      0.0408
    140  CG         9.1910   51.2260   10.0450 C.3   243  GLN243      0.0908
    141  CD         7.7210   51.5340   10.2390 C.2   243  GLN243      0.2608
    142  OE1        7.3630   52.4670   10.9600 O.2   243  GLN243     -0.2717
    143  NE2        6.8600   50.7490    9.6020 N.am  243  GLN243     -0.0878
    144  N         12.2120   51.3640   13.3880 N.am  244  ILE244     -0.1977
    145  CA        12.6860   51.2280   14.7560 C.3   244  ILE244      0.1596
    146  C         11.4230   50.8710   15.5290 C.2   244  ILE244      0.2287
    147  O         10.5480   51.7160   15.7200 O.2   244  ILE244     -0.2864
    148  CB        13.2560   52.5600   15.2720 C.3   244  ILE244      0.0276
    149  CG1       14.3750   53.0330   14.3410 C.3   244  ILE244      0.0022
    150  CG2       13.7760   52.3930   16.6900 C.3   244  ILE244      0.0022
    151  CD1       14.9160   54.4070   14.6710 C.3   244  ILE244      0.0001
    152  N         26.7720   42.6780    4.3750 N.3   283  MET283     -0.1245
    153  CA        26.0970   41.7470    5.2720 C.3   283  MET283      0.1570
    154  C         24.6900   41.3750    4.8150 C.2   283  MET283      0.2261
    155  O         24.2100   40.2780    5.0980 O.2   283  MET283     -0.2867
    156  CB        26.0540   42.3290    6.6900 C.3   283  MET283      0.0387
    157  CG        25.1850   43.5700    6.8710 C.3   283  MET283      0.0595
    158  SD        23.4750   43.1880    7.3150 S.3   283  MET283     -0.1393
    159  CE        22.5740   44.2400    6.1820 C.3   283  MET283      0.0692
    160  N         13.1840   38.6770    6.1460 N.3   311  ASN311     -0.1240
    161  CA        13.1110   39.8970    6.9350 C.3   311  ASN311      0.1653
    162  C         13.6210   41.0740    6.1120 C.2   311  ASN311      0.2266
    163  O         14.7760   41.1020    5.6870 O.2   311  ASN311     -0.2867
    164  CB        13.9160   39.7460    8.2280 C.3   311  ASN311      0.1155
    165  CG        13.4050   40.6490    9.3350 C.2   311  ASN311      0.2627
    166  OD1       12.2250   41.0050    9.3660 O.2   311  ASN311     -0.2716
    167  ND2       14.2840   41.0070   10.2610 N.am  311  ASN311     -0.0877
    168  N         15.1770   44.1700    5.7590 N.3   313  ALA313     -0.1231
    169  CA        16.0740   45.1160    6.4100 C.3   313  ALA313      0.1694
    170  C         16.0500   46.3910    5.5840 C.2   313  ALA313      0.2592
    171  O         15.8590   47.4900    6.1030 O.2   313  ALA313     -0.2718
    172  CB        17.4820   44.5520    6.4500 C.3   313  ALA313      0.0304
    173  N         16.2470   46.2180    4.2820 N.am  314  PHE314     -0.1976
    174  CA        16.2450   47.3130    3.3260 C.3   314  PHE314      0.1639
    175  C         15.7720   46.7350    2.0030 C.2   314  PHE314      0.2290
    176  O         16.0780   45.5880    1.6810 O.2   314  PHE314     -0.2864
    177  CB        17.6550   47.8730    3.1460 C.3   314  PHE314      0.0560
    178  CG        18.2830   48.3600    4.4160 C.ar  314  PHE314     -0.0200
    179  CD1       17.8270   49.5180    5.0360 C.ar  314  PHE314     -0.0042
    180  CD2       19.3350   47.6580    4.9930 C.ar  314  PHE314     -0.0042
    181  CE1       18.4130   49.9700    6.2150 C.ar  314  PHE314     -0.0003
    182  CE2       19.9280   48.1010    6.1690 C.ar  314  PHE314     -0.0003
    183  CZ        19.4660   49.2600    6.7820 C.ar  314  PHE314     -0.0000
    184  N         11.2490   46.3680   12.7880 N.3   346  HIS346     -0.1241
    185  CA        12.2580   45.3360   12.9800 C.3   346  HIS346      0.1621
    186  C         12.9490   45.4030   14.3410 C.2   346  HIS346      0.2264
    187  O         13.9940   46.0360   14.4900 O.2   346  HIS346     -0.2867
    188  CB        13.3020   45.4170   11.8600 C.3   346  HIS346      0.0745
    189  CG        14.5640   44.6670   12.1540 C.ar  346  HIS346      0.0817
    190  ND1       14.5800   43.3280   12.4780 N.ar  346  HIS346     -0.2268
    191  CD2       15.8530   45.0780   12.1960 C.ar  346  HIS346      0.1154
    192  CE1       15.8230   42.9470   12.7070 C.ar  346  HIS346      0.1986
    193  NE2       16.6150   43.9890   12.5420 N.ar  346  HIS346     -0.2212
    194  N         15.3280   44.2830   16.6030 N.3   348  PHE348     -0.1241
    195  CA        16.5340   43.4590   16.5730 C.3   348  PHE348      0.1605
    196  C         16.4020   42.0880   17.2320 C.2   348  PHE348      0.2264
    197  O         16.2830   41.0730   16.5470 O.2   348  PHE348     -0.2867
    198  CB        17.6970   44.2320   17.1990 C.3   348  PHE348      0.0534
    199  CG        18.1420   45.4200   16.3890 C.ar  348  PHE348     -0.0203
    200  CD1       18.8330   46.4680   16.9890 C.ar  348  PHE348     -0.0042
    201  CD2       17.8750   45.4910   15.0230 C.ar  348  PHE348     -0.0042
    202  CE1       19.2490   47.5700   16.2450 C.ar  348  PHE348     -0.0003
    203  CE2       18.2880   46.5880   14.2700 C.ar  348  PHE348     -0.0003
    204  CZ        18.9760   47.6300   14.8820 C.ar  348  PHE348     -0.0000
    205  N         19.1810   38.6060    7.0740 N.3   376  CYS376     -0.1235
    206  CA        20.5800   39.0070    7.0640 C.3   376  CYS376      0.1677
    207  C         20.9310   39.5410    8.4450 C.2   376  CYS376      0.2270
    208  O         20.0700   40.0750    9.1460 O.2   376  CYS376     -0.2867
    209  CB        20.8300   40.0810    6.0000 C.3   376  CYS376      0.0956
    210  SG        20.0540   41.6610    6.3000 S.3   376  CYS376     -0.0801
@<TRIPOS>BOND
     1    76    77    1
     2    84    85    2
     3    84    83    1
     4    82    83    1
     5    82    78   am
     6    86    83    1
     7    86    87    1
     8    77    78    1
     9    77    80    1
    10    93    92    2
    11    88    87    1
    12    78    79    2
    13    72    71    2
    14    87    89    1
    15    90    91    1
    16    80    81    1
    17    71    70    1
    18    92    91    1
    19    91    94    1
    20    64    63    2
    21    75    73    1
    22    94    95    1
    23    70    73    1
    24    70    69    1
    25   176   175    2
    26    63    69   am
    27    63    62    1
    28   175   174    1
    29    95    96    1
    30    95    97    1
    31    73    74    1
    32    62    65    1
    33    62    61    1
    34    40    41    1
    35    98    99    1
    36   177   174    1
    37   177   178    1
    38    42    41    1
    39    42    43    2
    40   121   122    2
    41   121   120    1
    42   105   106    2
    43   105   104    1
    44   174   173    1
    45    44    41    1
    46    44    45    1
    47    65    66    1
    48   120   119    1
    49    47    45   ar
    50    47    49   ar
    51   103   104    1
    52   103   100   am
    53   119   116   am
    54    68    66   ar
    55   173   170   am
    56    45    46   ar
    57   104   107    1
    58   152   153    1
    59   178   180   ar
    60   178   179   ar
    61   114   115    1
    62   107   108    1
    63   123   124    1
    64    66    67   ar
    65    99   100    1
    66    99   102    1
    67    53    52    2
    68   154   155    2
    69   154   153    1
    70   100   101    2
    71   109   108   ar
    72   109   111   ar
    73   180   182   ar
    74   179   181   ar
    75    49    48   ar
    76   128   127    1
    77   153   156    1
    78   116   115    1
    79   116   117    2
    80   108   110   ar
    81   124   127    1
    82   124   125    1
    83    52    51    1
    84   170   171    2
    85   170   169    1
    86   115   118    1
    87    46    48   ar
    88   163   162    2
    89   168   169    1
    90    35    34    2
    91   111   113   ar
    92   209   210    1
    93   209   206    1
    94   162   161    1
    95   160   161    1
    96   182   183   ar
    97   159   158    1
    98   181   183   ar
    99   169   172    1
   100   125   126    2
   101   125   129   am
   102   156   157    1
   103   110   112   ar
   104    54    51    1
   105    54    55    1
   106   157   158    1
   107    34    33    1
   108   161   164    1
   109    51    50    1
   110   206   205    1
   111   206   207    1
   112   113   112   ar
   113   129   130    1
   114    57    56    1
   115    57    58    2
   116    56    55    1
   117    60    58    1
   118    33    32    1
   119    33    36    1
   120    58    59    1
   121   164   165    1
   122   207   208    2
   123   130   133    1
   124   130   131    1
   125    36    37    1
   126   133   134    1
   127   165   166    2
   128   165   167   am
   129   131   132    2
   130   131   135   am
   131   143   141   am
   132   140   141    1
   133   140   139    1
   134   141   142    2
   135   135   136    1
   136    38    37    1
   137    38    39    1
   138   136   139    1
   139   136   137    1
   140   188   189    1
   141   188   185    1
   142   189   191   ar
   143   189   190   ar
   144   191   193   ar
   145    15    14    1
   146   190   192   ar
   147   193   192   ar
   148    14    11    1
   149   137   138    2
   150   137   144   am
   151   184   185    1
   152   185   186    1
   153     9     8    1
   154   144   145    1
   155     8     7    1
   156    11    12    1
   157    11    10    1
   158    12    13    2
   159   203   204   ar
   160   203   201   ar
   161   149   151    1
   162   149   148    1
   163   186   187    2
   164    31    30    1
   165   145   148    1
   166   145   146    1
   167   204   202   ar
   168   201   199   ar
   169     7     6    1
   170    30    29    1
   171   148   150    1
   172   146   147    2
   173   202   200   ar
   174     6     5    1
   175   199   200   ar
   176   199   198    1
   177   197   196    2
   178   195   194    1
   179   195   198    1
   180   195   196    1
   181    23    22    1
   182    29    28    1
   183    22    21    1
   184     5     2    1
   185    28    25    1
   186     1     2    1
   187     4     3    2
   188     2     3    1
   189    21    20    1
   190    25    26    1
   191    25    24    1
   192    26    27    2
   193    20    17    1
   194    17    18    1
   195    17    16    1
   196    19    18    2
