@<TRIPOS>MOLECULE
tmp/1wdlA03.pdb
 76 72 0 0 0
SMALL
GASTEIGER

@<TRIPOS>ATOM
      1  N         30.1610   85.5910   40.8310 N.3   343  LYS343     -0.1245
      2  CA        30.9570   86.7890   41.0520 C.3   343  LYS343      0.1561
      3  C         32.1900   86.4720   41.8920 C.2   343  LYS343      0.2260
      4  O         32.1310   85.6630   42.8170 O.2   343  LYS343     -0.2867
      5  CB        30.1010   87.8490   41.7500 C.3   343  LYS343      0.0271
      6  CG        30.5060   89.2870   41.4660 C.3   343  LYS343      0.0035
      7  CD        31.7990   89.6720   42.1560 C.3   343  LYS343      0.0206
      8  CE        32.1280   91.1330   41.8960 C.3   343  LYS343      0.1093
      9  NZ        33.3450   91.5710   42.6320 N.3   343  LYS343     -0.1314
     10  N         36.6690   88.0880   42.6000 N.3   345  ILE345     -0.1245
     11  CA        37.6100   89.1920   42.4270 C.3   345  ILE345      0.1561
     12  C         38.7430   88.9130   41.4430 C.2   345  ILE345      0.2260
     13  O         39.2250   89.8260   40.7740 O.2   345  ILE345     -0.2867
     14  CB        38.2380   89.6080   43.7750 C.3   345  ILE345      0.0252
     15  CG1       38.7960   88.3770   44.4920 C.3   345  ILE345      0.0019
     16  CG2       37.2050   90.3240   44.6290 C.3   345  ILE345      0.0019
     17  CD1       39.5250   88.6910   45.7830 C.3   345  ILE345      0.0001
     18  N         33.3380   89.4440   37.2350 N.3   386  LEU386     -0.1231
     19  CA        34.2510   89.9870   38.2320 C.3   386  LEU386      0.1693
     20  C         33.7930   91.3750   38.6680 C.2   386  LEU386      0.2592
     21  O         34.5220   92.0930   39.3530 O.2   386  LEU386     -0.2718
     22  CB        35.6740   90.0580   37.6700 C.3   386  LEU386      0.0284
     23  CG        36.4160   88.7310   37.4870 C.3   386  LEU386      0.0019
     24  CD1       37.7200   88.9720   36.7440 C.3   386  LEU386      0.0001
     25  CD2       36.6820   88.0980   38.8460 C.3   386  LEU386      0.0001
     26  N         32.5820   91.7450   38.2620 N.am  387  SER387     -0.1952
     27  CA        32.0110   93.0430   38.6100 C.3   387  SER387      0.1924
     28  C         30.5490   92.8760   39.0150 C.2   387  SER387      0.2314
     29  O         30.0690   91.7540   39.1860 O.2   387  SER387     -0.2863
     30  CB        32.1000   94.0020   37.4210 C.3   387  SER387      0.2116
     31  OG        31.2450   93.5900   36.3700 O.3   387  SER387     -0.2180
     32  N         35.4270   82.8640   55.5910 N.3   403  GLU403     -0.1231
     33  CA        34.9110   83.0470   56.9430 C.3   403  GLU403      0.1699
     34  C         35.5960   84.2010   57.6590 C.2   403  GLU403      0.2592
     35  O         36.6440   84.0300   58.2840 O.2   403  GLU403     -0.2718
     36  CB        35.0840   81.7620   57.7540 C.3   403  GLU403      0.0402
     37  CG        33.9410   80.7810   57.5810 C.3   403  GLU403      0.1161
     38  CD        32.6270   81.3330   58.1060 C.2   403  GLU403      0.3649
     39  OE1       32.4970   81.5000   59.3370 O.co2 403  GLU403     -0.2457
     40  OE2       31.7250   81.6070   57.2870 O.co2 403  GLU403     -0.2457
     41  N         34.9880   85.3780   57.5700 N.am  404  ASN404     -0.1961
     42  CA        35.5370   86.5650   58.2030 C.3   404  ASN404      0.1804
     43  C         34.4380   87.6060   58.3920 C.2   404  ASN404      0.2463
     44  O         33.9330   88.1730   57.4230 O.2   404  ASN404     -0.2730
     45  CB        36.6580   87.1430   57.3370 C.3   404  ASN404      0.1195
     46  CG        37.5070   88.1490   58.0780 C.2   404  ASN404      0.2630
     47  OD1       37.0150   89.1790   58.5400 O.2   404  ASN404     -0.2716
     48  ND2       38.7940   87.8550   58.1980 N.am  404  ASN404     -0.0877
     49  N         34.0530   87.8670   59.6510 N.am  405  PRO405     -0.2716
     50  CA        33.0070   88.8400   59.9810 C.3   405  PRO405      0.1536
     51  C         33.1870   90.1670   59.2490 C.2   405  PRO405      0.2598
     52  O         32.2470   90.6850   58.6470 O.2   405  PRO405     -0.2715
     53  CB        33.1500   88.9880   61.4910 C.3   405  PRO405      0.0310
     54  CG        33.5670   87.6140   61.9090 C.3   405  PRO405      0.0237
     55  CD        34.6120   87.2680   60.8750 C.3   405  PRO405      0.0939
     56  N         34.3990   90.7080   59.3060 N.am  406  LYS406     -0.1964
     57  CA        34.7050   91.9750   58.6520 C.3   406  LYS406      0.1728
     58  C         34.5350   91.8850   57.1400 C.2   406  LYS406      0.2616
     59  O         33.7730   92.6480   56.5470 O.2   406  LYS406     -0.2715
     60  CB        36.1390   92.4060   58.9690 C.3   406  LYS406      0.0311
     61  CG        36.4270   92.6460   60.4420 C.3   406  LYS406      0.0038
     62  CD        35.4950   93.6870   61.0410 C.3   406  LYS406      0.0206
     63  CE        36.1230   94.3190   62.2720 C.3   406  LYS406      0.1093
     64  NZ        35.1960   94.3660   63.4320 N.3   406  LYS406     -0.1314
     65  N         35.2540   90.9520   56.5240 N.am  407  VAL407     -0.1977
     66  CA        35.1940   90.7630   55.0800 C.3   407  VAL407      0.1596
     67  C         33.7630   90.5740   54.5860 C.2   407  VAL407      0.2287
     68  O         33.3100   91.2920   53.6940 O.2   407  VAL407     -0.2864
     69  CB        36.0300   89.5430   54.6400 C.3   407  VAL407      0.0276
     70  CG1       35.9820   89.3980   53.1280 C.3   407  VAL407      0.0022
     71  CG2       37.4660   89.7010   55.1110 C.3   407  VAL407      0.0022
     72  N         31.7830   93.7580   54.5400 N.3   410  ALA410     -0.1245
     73  CA        32.1740   94.6730   53.4750 C.3   410  ALA410      0.1562
     74  C         31.5830   94.2210   52.1450 C.2   410  ALA410      0.2260
     75  O         31.0230   95.0230   51.3970 O.2   410  ALA410     -0.2867
     76  CB        33.6920   94.7430   53.3770 C.3   410  ALA410      0.0290
@<TRIPOS>BOND
     1    31    30    1
     2    24    23    1
     3    18    19    1
     4    30    27    1
     5    23    22    1
     6    23    25    1
     7    22    19    1
     8    19    20    1
     9    26    27    1
    10    26    20   am
    11    27    28    1
    12    20    21    2
    13    28    29    2
    14    13    12    2
    15     1     2    1
    16     2     5    1
    17     2     3    1
    18    12    11    1
    19     6     5    1
    20     6     7    1
    21     3     4    2
    22     8     7    1
    23     8     9    1
    24    11    10    1
    25    11    14    1
    26    14    15    1
    27    14    16    1
    28    15    17    1
    29    75    74    2
    30    74    73    1
    31    70    69    1
    32    76    73    1
    33    73    72    1
    34    68    67    2
    35    67    66    1
    36    69    66    1
    37    69    71    1
    38    66    65    1
    39    32    33    1
    40    65    58   am
    41    59    58    2
    42    33    34    1
    43    33    36    1
    44    58    57    1
    45    40    38   ar
    46    45    46    1
    47    45    42    1
    48    44    43    2
    49    41    34   am
    50    41    42    1
    51    37    36    1
    52    37    38    1
    53    34    35    2
    54    46    48   am
    55    46    47    2
    56    38    39   ar
    57    42    43    1
    58    43    49   am
    59    52    51    2
    60    57    60    1
    61    57    56    1
    62    60    61    1
    63    51    56   am
    64    51    50    1
    65    49    50    1
    66    49    55    1
    67    50    53    1
    68    61    62    1
    69    55    54    1
    70    62    63    1
    71    53    54    1
    72    63    64    1
