@<TRIPOS>MOLECULE
tmp/1wdlA00.pdb
 198 189 0 0 0
SMALL
GASTEIGER

@<TRIPOS>ATOM
      1  N         28.3870   85.0720   45.6010 N.3   320  LEU320     -0.1231
      2  CA        29.6330   85.7930   45.8240 C.3   320  LEU320      0.1693
      3  C         30.7610   84.8270   46.1670 C.2   320  LEU320      0.2593
      4  O         30.7880   84.2500   47.2530 O.2   320  LEU320     -0.2718
      5  CB        29.4540   86.8020   46.9610 C.3   320  LEU320      0.0284
      6  CG        28.2900   87.7870   46.8180 C.3   320  LEU320      0.0019
      7  CD1       28.1440   88.5890   48.0980 C.3   320  LEU320      0.0001
      8  CD2       28.5270   88.7050   45.6270 C.3   320  LEU320      0.0001
      9  N         31.6910   84.6550   45.2320 N.am  321  GLY321     -0.1942
     10  CA        32.8080   83.7580   45.4580 C.3   321  GLY321      0.2014
     11  C         32.6370   82.4160   44.7740 C.2   321  GLY321      0.2639
     12  O         31.6710   81.6960   45.0310 O.2   321  GLY321     -0.2714
     13  N         33.5760   82.0820   43.8960 N.am  322  ALA322     -0.1963
     14  CA        33.5380   80.8160   43.1740 C.3   322  ALA322      0.1728
     15  C         34.3540   79.7840   43.9420 C.2   322  ALA322      0.2617
     16  O         34.5280   79.8990   45.1550 O.2   322  ALA322     -0.2715
     17  CB        34.1080   80.9990   41.7740 C.3   322  ALA322      0.0334
     18  N         34.8480   78.7730   43.2360 N.am  323  GLY323     -0.1940
     19  CA        35.6520   77.7520   43.8810 C.3   323  GLY323      0.2014
     20  C         34.8860   76.5630   44.4270 C.2   323  GLY323      0.2639
     21  O         34.2140   75.8480   43.6840 O.2   323  GLY323     -0.2714
     22  N         34.9860   76.3550   45.7360 N.am  324  ILE324     -0.1963
     23  CA        34.3270   75.2360   46.3960 C.3   324  ILE324      0.1727
     24  C         32.8210   75.4250   46.5820 C.2   324  ILE324      0.2616
     25  O         32.0240   74.8330   45.8550 O.2   324  ILE324     -0.2715
     26  CB        34.9700   74.9620   47.7730 C.3   324  ILE324      0.0290
     27  CG1       36.4870   74.8170   47.6130 C.3   324  ILE324      0.0022
     28  CG2       34.3890   73.6900   48.3760 C.3   324  ILE324      0.0023
     29  CD1       37.2330   74.6000   48.9130 C.3   324  ILE324      0.0001
     30  N         32.4340   76.2430   47.5560 N.am  325  MET325     -0.1963
     31  CA        31.0200   76.4860   47.8290 C.3   325  MET325      0.1736
     32  C         30.3150   77.2630   46.7240 C.2   325  MET325      0.2617
     33  O         29.1270   77.0570   46.4750 O.2   325  MET325     -0.2715
     34  CB        30.8570   77.2230   49.1610 C.3   325  MET325      0.0427
     35  CG        31.2190   76.3830   50.3730 C.3   325  MET325      0.0599
     36  SD        30.2600   74.8550   50.4590 S.3   325  MET325     -0.1393
     37  CE        28.8870   75.3630   51.4930 C.3   325  MET325      0.0692
     38  N         31.0450   78.1560   46.0660 N.am  326  GLY326     -0.1955
     39  CA        30.4550   78.9410   44.9960 C.3   326  GLY326      0.1869
     40  C         30.0870   78.0920   43.7940 C.2   326  GLY326      0.2309
     41  O         29.0240   78.2710   43.1980 O.2   326  GLY326     -0.2863
     42  N         30.1610   85.5910   40.8310 N.3   343  LYS343     -0.1231
     43  CA        30.9570   86.7890   41.0520 C.3   343  LYS343      0.1693
     44  C         32.1900   86.4720   41.8920 C.2   343  LYS343      0.2592
     45  O         32.1310   85.6630   42.8170 O.2   343  LYS343     -0.2718
     46  CB        30.1010   87.8490   41.7500 C.3   343  LYS343      0.0285
     47  CG        30.5060   89.2870   41.4660 C.3   343  LYS343      0.0035
     48  CD        31.7990   89.6720   42.1560 C.3   343  LYS343      0.0206
     49  CE        32.1280   91.1330   41.8960 C.3   343  LYS343      0.1093
     50  NZ        33.3450   91.5710   42.6320 N.3   343  LYS343     -0.1314
     51  N         33.3060   87.1100   41.5570 N.am  344  ASP344     -0.1960
     52  CA        34.5570   86.9060   42.2780 C.3   344  ASP344      0.1840
     53  C         35.4730   88.1020   42.0190 C.2   344  ASP344      0.2622
     54  O         35.0950   89.0290   41.3010 O.2   344  ASP344     -0.2715
     55  CB        35.2220   85.6060   41.8160 C.3   344  ASP344      0.1450
     56  CG        36.2120   85.0650   42.8280 C.2   344  ASP344      0.3671
     57  OD1       37.2860   85.6760   43.0030 O.co2 344  ASP344     -0.2456
     58  OD2       35.9110   84.0280   43.4560 O.co2 344  ASP344     -0.2456
     59  N         36.6690   88.0880   42.6000 N.am  345  ILE345     -0.1963
     60  CA        37.6100   89.1920   42.4270 C.3   345  ILE345      0.1727
     61  C         38.7430   88.9130   41.4430 C.2   345  ILE345      0.2616
     62  O         39.2250   89.8260   40.7740 O.2   345  ILE345     -0.2715
     63  CB        38.2380   89.6080   43.7750 C.3   345  ILE345      0.0290
     64  CG1       38.7960   88.3770   44.4920 C.3   345  ILE345      0.0022
     65  CG2       37.2050   90.3240   44.6290 C.3   345  ILE345      0.0023
     66  CD1       39.5250   88.6910   45.7830 C.3   345  ILE345      0.0001
     67  N         39.1730   87.6590   41.3580 N.am  346  ASN346     -0.1972
     68  CA        40.2550   87.2970   40.4490 C.3   346  ASN346      0.1688
     69  C         39.8330   86.2180   39.4570 C.2   346  ASN346      0.2292
     70  O         38.9880   85.3760   39.7590 O.2   346  ASN346     -0.2864
     71  CB        41.4780   86.8300   41.2430 C.3   346  ASN346      0.1181
     72  CG        41.1850   85.6240   42.1120 C.2   346  ASN346      0.2629
     73  OD1       40.8700   84.5450   41.6100 O.2   346  ASN346     -0.2716
     74  ND2       41.2890   85.8000   43.4240 N.am  346  ASN346     -0.0877
     75  N         39.7140   82.5300   40.3810 N.3   349  GLY349     -0.1225
     76  CA        38.5810   82.0100   41.1240 C.3   349  GLY349      0.1811
     77  C         37.5170   81.4480   40.2030 C.2   349  GLY349      0.2280
     78  O         37.0700   80.3130   40.3720 O.2   349  GLY349     -0.2866
     79  N         29.8450   93.9940   39.1650 N.3   388  TYR388     -0.1241
     80  CA        28.4360   93.9690   39.5460 C.3   388  TYR388      0.1605
     81  C         27.5650   94.6190   38.4750 C.2   388  TYR388      0.2264
     82  O         26.4100   94.9600   38.7270 O.2   388  TYR388     -0.2867
     83  CB        28.2230   94.7080   40.8710 C.3   388  TYR388      0.0534
     84  CG        29.0270   94.1670   42.0320 C.ar  388  TYR388     -0.0201
     85  CD1       30.1530   94.8430   42.5010 C.ar  388  TYR388     -0.0009
     86  CD2       28.6560   92.9840   42.6690 C.ar  388  TYR388     -0.0009
     87  CE1       30.8890   94.3560   43.5790 C.ar  388  TYR388      0.0417
     88  CE2       29.3850   92.4870   43.7460 C.ar  388  TYR388      0.0417
     89  CZ        30.4980   93.1780   44.1960 C.ar  388  TYR388      0.1957
     90  OH        31.2160   92.6920   45.2640 O.3   388  TYR388     -0.2866
     91  N         26.0820   84.8970   49.5010 N.3   399  GLU399     -0.1231
     92  CA        27.4880   85.1770   49.7650 C.3   399  GLU399      0.1699
     93  C         28.2290   83.9070   50.1710 C.2   399  GLU399      0.2592
     94  O         27.7040   83.0850   50.9220 O.2   399  GLU399     -0.2718
     95  CB        27.6070   86.2380   50.8630 C.3   399  GLU399      0.0402
     96  CG        29.0330   86.5770   51.2690 C.3   399  GLU399      0.1161
     97  CD        29.4560   85.8880   52.5520 C.2   399  GLU399      0.3649
     98  OE1       28.8120   86.1320   53.5930 O.co2 399  GLU399     -0.2457
     99  OE2       30.4300   85.1090   52.5230 O.co2 399  GLU399     -0.2457
    100  N         29.4480   83.7490   49.6630 N.am  400  ALA400     -0.1966
    101  CA        30.2620   82.5780   49.9690 C.3   400  ALA400      0.1728
    102  C         31.7020   82.9830   50.2560 C.2   400  ALA400      0.2616
    103  O         32.6140   82.1600   50.1840 O.2   400  ALA400     -0.2715
    104  CB        30.2170   81.5950   48.8060 C.3   400  ALA400      0.0334
    105  N         31.8970   84.2560   50.5790 N.am  401  VAL401     -0.1963
    106  CA        33.2210   84.7820   50.8800 C.3   401  VAL401      0.1727
    107  C         33.8270   84.0670   52.0870 C.2   401  VAL401      0.2616
    108  O         33.1100   83.4890   52.9030 O.2   401  VAL401     -0.2715
    109  CB        33.1540   86.2990   51.1610 C.3   401  VAL401      0.0290
    110  CG1       34.5440   86.8450   51.4390 C.3   401  VAL401      0.0023
    111  CG2       32.5330   87.0140   49.9710 C.3   401  VAL401      0.0023
    112  N         35.1520   84.1090   52.1890 N.am  402  VAL402     -0.1963
    113  CA        35.8720   83.4630   53.2810 C.3   402  VAL402      0.1727
    114  C         35.2730   83.7910   54.6490 C.2   402  VAL402      0.2616
    115  O         34.6880   84.8570   54.8440 O.2   402  VAL402     -0.2715
    116  CB        37.3570   83.8820   53.2860 C.3   402  VAL402      0.0290
    117  CG1       38.1510   82.9620   54.1970 C.3   402  VAL402      0.0023
    118  CG2       37.9120   83.8530   51.8720 C.3   402  VAL402      0.0023
    119  N         35.4270   82.8640   55.5910 N.am  403  GLU403     -0.1977
    120  CA        34.9110   83.0470   56.9430 C.3   403  GLU403      0.1602
    121  C         35.5960   84.2010   57.6590 C.2   403  GLU403      0.2287
    122  O         36.6440   84.0300   58.2840 O.2   403  GLU403     -0.2864
    123  CB        35.0840   81.7620   57.7540 C.3   403  GLU403      0.0415
    124  CG        33.9410   80.7810   57.5810 C.3   403  GLU403      0.1163
    125  CD        32.6270   81.3330   58.1060 C.2   403  GLU403      0.3649
    126  OE1       32.4970   81.5000   59.3370 O.co2 403  GLU403     -0.2457
    127  OE2       31.7250   81.6070   57.2870 O.co2 403  GLU403     -0.2457
    128  N         35.2540   90.9520   56.5240 N.3   407  VAL407     -0.1231
    129  CA        35.1940   90.7630   55.0800 C.3   407  VAL407      0.1692
    130  C         33.7630   90.5740   54.5860 C.2   407  VAL407      0.2591
    131  O         33.3100   91.2920   53.6940 O.2   407  VAL407     -0.2718
    132  CB        36.0300   89.5430   54.6400 C.3   407  VAL407      0.0266
    133  CG1       35.9820   89.3980   53.1280 C.3   407  VAL407      0.0020
    134  CG2       37.4660   89.7010   55.1110 C.3   407  VAL407      0.0020
    135  N         33.0550   89.6090   55.1650 N.am  408  LYS408     -0.1980
    136  CA        31.6760   89.3370   54.7710 C.3   408  LYS408      0.1596
    137  C         30.8070   90.5880   54.8370 C.2   408  LYS408      0.2287
    138  O         29.9650   90.8080   53.9690 O.2   408  LYS408     -0.2864
    139  CB        31.0680   88.2450   55.6560 C.3   408  LYS408      0.0298
    140  CG        31.5620   86.8360   55.3560 C.3   408  LYS408      0.0038
    141  CD        30.9190   85.8270   56.2970 C.3   408  LYS408      0.0206
    142  CE        31.4080   84.4090   56.0360 C.3   408  LYS408      0.1093
    143  NZ        30.9710   83.8860   54.7140 N.3   408  LYS408     -0.1314
    144  N         31.7100   92.9300   51.8610 N.3   411  VAL411     -0.1245
    145  CA        31.1950   92.3610   50.6210 C.3   411  VAL411      0.1561
    146  C         29.6790   92.5070   50.5340 C.2   411  VAL411      0.2260
    147  O         29.1460   92.9710   49.5260 O.2   411  VAL411     -0.2867
    148  CB        31.5530   90.8650   50.5080 C.3   411  VAL411      0.0252
    149  CG1       31.1030   90.3220   49.1620 C.3   411  VAL411      0.0019
    150  CG2       33.0480   90.6740   50.6920 C.3   411  VAL411      0.0019
    151  N         28.5560   95.9290   50.0640 N.3   414  GLU414     -0.1245
    152  CA        28.9700   96.3400   48.7300 C.3   414  GLU414      0.1567
    153  C         27.9350   95.9760   47.6680 C.2   414  GLU414      0.2260
    154  O         27.5050   96.8290   46.8920 O.2   414  GLU414     -0.2867
    155  CB        30.3190   95.6970   48.3980 C.3   414  GLU414      0.0388
    156  CG        30.9860   96.2350   47.1480 C.3   414  GLU414      0.1160
    157  CD        32.4440   95.8290   47.0580 C.2   414  GLU414      0.3649
    158  OE1       32.7240   94.6130   47.0040 O.co2 414  GLU414     -0.2457
    159  OE2       33.3110   96.7290   47.0450 O.co2 414  GLU414     -0.2457
    160  N         26.1960   82.5070   53.4330 N.3   428  ASN428     -0.1225
    161  CA        26.3130   81.0600   53.5710 C.3   428  ASN428      0.1785
    162  C         27.2240   80.7000   54.7420 C.2   428  ASN428      0.2598
    163  O         27.5630   79.5330   54.9400 O.2   428  ASN428     -0.2718
    164  CB        26.8630   80.4580   52.2750 C.3   428  ASN428      0.1169
    165  CG        26.8990   78.9430   52.3030 C.2   428  ASN428      0.2627
    166  OD1       25.8690   78.2890   52.4530 O.2   428  ASN428     -0.2716
    167  ND2       28.0910   78.3780   52.1550 N.am  428  ASN428     -0.0877
    168  N         27.6090   81.7090   55.5190 N.am  429  THR429     -0.1939
    169  CA        28.4870   81.5160   56.6700 C.3   429  THR429      0.2028
    170  C         28.0040   80.3890   57.5790 C.2   429  THR429      0.2642
    171  O         26.8420   79.9870   57.5200 O.2   429  THR429     -0.2714
    172  CB        28.6030   82.8080   57.5060 C.3   429  THR429      0.1808
    173  OG1       29.5460   82.6090   58.5660 O.3   429  THR429     -0.2208
    174  CG2       27.2530   83.1830   58.0990 C.3   429  THR429      0.0379
    175  N         28.9010   79.8880   58.4220 N.am  430  SER430     -0.1949
    176  CA        28.5590   78.8000   59.3300 C.3   430  SER430      0.1924
    177  C         28.9340   79.0840   60.7820 C.2   430  SER430      0.2314
    178  O         28.3520   78.5040   61.6990 O.2   430  SER430     -0.2863
    179  CB        29.2420   77.5060   58.8770 C.3   430  SER430      0.2116
    180  OG        30.6530   77.6300   58.9290 O.3   430  SER430     -0.2180
    181  N         22.2350   78.6340   54.7910 N.3   451  HIS451     -0.1241
    182  CA        23.3320   77.7170   55.0670 C.3   451  HIS451      0.1621
    183  C         23.2970   76.4190   54.2650 C.2   451  HIS451      0.2264
    184  O         22.3700   75.6210   54.3990 O.2   451  HIS451     -0.2867
    185  CB        23.3360   77.3880   56.5630 C.3   451  HIS451      0.0745
    186  CG        24.6120   76.7770   57.0520 C.ar  451  HIS451      0.0817
    187  ND1       24.7550   76.2860   58.3320 N.ar  451  HIS451     -0.2268
    188  CD2       25.8110   76.6030   56.4470 C.ar  451  HIS451      0.1154
    189  CE1       25.9860   75.8370   58.4950 C.ar  451  HIS451      0.1986
    190  NE2       26.6480   76.0170   57.3660 N.ar  451  HIS451     -0.2212
    191  N         28.5790   71.2780   52.7210 N.3   454  ASN454     -0.1240
    192  CA        29.5580   70.7090   51.8020 C.3   454  ASN454      0.1653
    193  C         29.4260   69.1860   51.7310 C.2   454  ASN454      0.2266
    194  O         29.4810   68.5050   52.7560 O.2   454  ASN454     -0.2867
    195  CB        30.9650   71.0880   52.2760 C.3   454  ASN454      0.1155
    196  CG        32.0320   70.7990   51.2430 C.2   454  ASN454      0.2627
    197  OD1       32.2230   69.6570   50.8290 O.2   454  ASN454     -0.2716
    198  ND2       32.7420   71.8410   50.8240 N.am  454  ASN454     -0.0877
@<TRIPOS>BOND
     1    81    82    2
     2    81    80    1
     3    79    80    1
     4    69    70    2
     5    69    68    1
     6    80    83    1
     7    77    78    2
     8    77    76    1
     9    75    76    1
    10    68    71    1
    11    68    67    1
    12    62    61    2
    13    42    43    1
    14    83    84    1
    15    43    46    1
    16    43    44    1
    17    71    72    1
    18    54    53    2
    19    67    61   am
    20    61    60    1
    21    47    46    1
    22    47    48    1
    23    51    44   am
    24    51    52    1
    25    73    72    2
    26    17    14    1
    27    55    52    1
    28    55    56    1
    29    44    45    2
    30    49    48    1
    31    49    50    1
    32    53    52    1
    33    53    59   am
    34    84    85   ar
    35    84    86   ar
    36    72    74   am
    37    60    59    1
    38    60    63    1
    39    85    87   ar
    40    86    88   ar
    41    56    57   ar
    42    56    58   ar
    43    14    13    1
    44    14    15    1
    45    41    40    2
    46    18    19    1
    47    18    15   am
    48    87    89   ar
    49    21    20    2
    50    88    89   ar
    51    63    64    1
    52    63    65    1
    53    40    39    1
    54    19    20    1
    55    13    11   am
    56    15    16    2
    57    89    90    1
    58    20    22   am
    59    64    66    1
    60    11    12    2
    61    11    10    1
    62    39    38    1
    63     9    10    1
    64     9     3   am
    65     1     2    1
    66     8     6    1
    67    22    23    1
    68     2     3    1
    69     2     5    1
    70    25    24    2
    71    38    32   am
    72     3     4    2
    73    23    24    1
    74    23    26    1
    75    33    32    2
    76    24    30   am
    77    32    31    1
    78     6     5    1
    79     6     7    1
    80   154   153    2
    81   158   157   ar
    82   159   157   ar
    83   157   156    1
    84   156   155    1
    85    30    31    1
    86    27    26    1
    87    27    29    1
    88   153   152    1
    89    26    28    1
    90    31    34    1
    91   155   152    1
    92   152   151    1
    93   104   101    1
    94    34    35    1
    95   149   148    1
    96    91    92    1
    97   147   146    2
    98   100   101    1
    99   100    93   am
   100    92    93    1
   101    92    95    1
   102   101   102    1
   103   111   109    1
   104    93    94    2
   105   103   102    2
   106   102   105   am
   107    35    36    1
   108    36    37    1
   109   148   145    1
   110   148   150    1
   111   146   145    1
   112   105   106    1
   113   145   144    1
   114   198   196   am
   115   197   196    2
   116    95    96    1
   117   106   109    1
   118   106   107    1
   119   109   110    1
   120   196   195    1
   121    96    97    1
   122   193   192    1
   123   193   194    2
   124   192   195    1
   125   192   191    1
   126   118   116    1
   127   107   112   am
   128   107   108    2
   129   167   165   am
   130   112   113    1
   131   164   165    1
   132   164   161    1
   133   165   166    2
   134    99    97   ar
   135    97    98   ar
   136   133   132    1
   137   113   116    1
   138   113   114    1
   139   116   117    1
   140   160   161    1
   141   161   162    1
   142   131   130    2
   143   138   137    2
   144   183   184    2
   145   183   182    1
   146   130   129    1
   147   130   135   am
   148   132   129    1
   149   132   134    1
   150   114   115    2
   151   114   119   am
   152   143   142    1
   153   162   163    2
   154   162   168   am
   155   136   137    1
   156   136   135    1
   157   136   139    1
   158   181   182    1
   159   182   185    1
   160   129   128    1
   161   140   139    1
   162   140   141    1
   163   168   169    1
   164   119   120    1
   165   142   141    1
   166   188   186   ar
   167   188   190   ar
   168   185   186    1
   169   169   172    1
   170   169   170    1
   171   120   121    1
   172   120   123    1
   173   186   187   ar
   174   127   125   ar
   175   190   189   ar
   176   172   174    1
   177   172   173    1
   178   171   170    2
   179   170   175   am
   180   124   123    1
   181   124   125    1
   182   121   122    2
   183   125   126   ar
   184   187   189   ar
   185   175   176    1
   186   179   180    1
   187   179   176    1
   188   176   177    1
   189   177   178    2
