@<TRIPOS>MOLECULE
tmp/1wdnA00.pdb
 122 115 0 0 0
SMALL
GASTEIGER

@<TRIPOS>ATOM
      1  N          1.0600   21.5550   18.4880 N.3     7  ASP7       -0.1239
      2  CA         0.9490   20.6820   19.6480 C.3     7  ASP7        0.1674
      3  C          1.4560   21.3980   20.9050 C.2     7  ASP7        0.2266
      4  O          2.4150   22.1630   20.8500 O.2     7  ASP7       -0.2867
      5  CB         1.7520   19.3860   19.4300 C.3     7  ASP7        0.1410
      6  CG         1.1490   18.1930   20.1670 C.2     7  ASP7        0.3668
      7  OD1        1.3640   18.0760   21.3930 O.co2   7  ASP7       -0.2456
      8  OD2        0.3970   17.4070   19.5400 O.co2   7  ASP7       -0.2456
      9  N          5.3220   18.2480   21.5770 N.3    10  PHE10      -0.1241
     10  CA         5.7030   17.1140   20.7430 C.3    10  PHE10       0.1605
     11  C          7.1650   17.3040   20.2820 C.2    10  PHE10       0.2264
     12  O          7.4640   17.7020   19.1490 O.2    10  PHE10      -0.2867
     13  CB         4.6990   16.9950   19.5670 C.3    10  PHE10       0.0534
     14  CG         4.9230   15.8060   18.6750 C.ar   10  PHE10      -0.0203
     15  CD1        5.0890   14.5440   19.2040 C.ar   10  PHE10      -0.0042
     16  CD2        5.1130   15.9860   17.3240 C.ar   10  PHE10      -0.0042
     17  CE1        5.4610   13.4900   18.3900 C.ar   10  PHE10      -0.0003
     18  CE2        5.4900   14.9330   16.5050 C.ar   10  PHE10      -0.0003
     19  CZ         5.6670   13.6890   17.0370 C.ar   10  PHE10      -0.0000
     20  N         -3.2270   17.9110   21.0640 N.3    47  PHE47      -0.1241
     21  CA        -3.4190   17.2940   19.7600 C.3    47  PHE47       0.1605
     22  C         -4.8660   16.9410   19.4690 C.2    47  PHE47       0.2264
     23  O         -5.3470   17.1880   18.3650 O.2    47  PHE47      -0.2867
     24  CB        -2.5590   16.0420   19.6490 C.3    47  PHE47       0.0534
     25  CG        -2.5520   15.4420   18.2800 C.ar   47  PHE47      -0.0203
     26  CD1       -1.6960   15.9400   17.3000 C.ar   47  PHE47      -0.0042
     27  CD2       -3.4630   14.4380   17.9410 C.ar   47  PHE47      -0.0042
     28  CE1       -1.7560   15.4460   15.9910 C.ar   47  PHE47      -0.0003
     29  CE2       -3.5320   13.9480   16.6500 C.ar   47  PHE47      -0.0003
     30  CZ        -2.6770   14.4540   15.6690 C.ar   47  PHE47      -0.0000
     31  N          1.6770   19.6900   13.6710 N.3    64  ALA64      -0.1231
     32  CA         1.8430   19.0250   14.9410 C.3    64  ALA64       0.1694
     33  C          2.3680   17.6520   14.6250 C.2    64  ALA64       0.2592
     34  O          1.7880   16.6770   15.0840 O.2    64  ALA64      -0.2718
     35  CB         0.4880   18.9150   15.6610 C.3    64  ALA64       0.0304
     36  N          3.2650   17.5740   13.6440 N.am   65  GLY65      -0.1957
     37  CA         3.7680   16.2880   13.1800 C.3    65  GLY65       0.1869
     38  C          2.6230   15.3580   12.8280 C.2    65  GLY65       0.2309
     39  O          2.5720   14.2120   13.3030 O.2    65  GLY65      -0.2863
     40  N          0.3560   13.0010   10.9170 N.3    67  THR67      -0.1218
     41  CA         0.3730   11.9470    9.9140 C.3    67  THR67       0.1862
     42  C         -0.7160   12.0940    8.8670 C.2    67  THR67       0.2287
     43  O         -1.9020   12.2550    9.1960 O.2    67  THR67      -0.2866
     44  CB         0.2230   10.5770   10.5970 C.3    67  THR67       0.1770
     45  OG1        1.1670   10.4850   11.6740 O.3    67  THR67      -0.2211
     46  CG2        0.4760    9.4470    9.6040 C.3    67  THR67       0.0375
     47  N         -8.1240   10.3300    7.4520 N.3    72  ARG72      -0.1245
     48  CA        -8.2070   11.7610    7.7720 C.3    72  ARG72       0.1563
     49  C         -8.5010   12.6220    6.5530 C.2    72  ARG72       0.2260
     50  O         -9.1040   13.6750    6.6910 O.2    72  ARG72      -0.2867
     51  CB        -6.9120   12.2640    8.4140 C.3    72  ARG72       0.0307
     52  CG        -6.8350   12.0810    9.9160 C.3    72  ARG72       0.0489
     53  CD        -5.3900   12.0410   10.3640 C.3    72  ARG72       0.2205
     54  NE        -5.2650   11.7190   11.7720 N.pl3  72  ARG72      -0.0865
     55  CZ        -4.1090   11.7010   12.4250 C.cat  72  ARG72       0.5346
     56  NH1       -2.9650   11.8450   11.7630 N.pl3  72  ARG72       0.1354
     57  NH2       -4.0890   11.4310   13.7230 N.pl3  72  ARG72       0.1354
     58  N         -1.1190    8.4230   23.6160 N.3   112  LYS112     -0.1245
     59  CA        -1.6190    9.7830   23.6700 C.3   112  LYS112      0.1561
     60  C         -2.9350    9.8320   22.8870 C.2   112  LYS112      0.2260
     61  O         -3.0090    9.3550   21.7520 O.2   112  LYS112     -0.2867
     62  CB        -0.5730   10.7020   23.0370 C.3   112  LYS112      0.0271
     63  CG        -1.0610   12.0940   22.6740 C.3   112  LYS112      0.0035
     64  CD         0.0960   12.9520   22.1920 C.3   112  LYS112      0.0206
     65  CE        -0.3630   14.2800   21.6230 C.3   112  LYS112      0.1093
     66  NZ         0.7850   15.1350   21.3310 N.3   112  LYS112     -0.1314
     67  N         -4.2020   10.3000   18.6020 N.3   115  THR115     -0.1203
     68  CA        -3.1040   10.0480   17.6870 C.3   115  THR115      0.1994
     69  C         -3.2180    8.6790   17.0250 C.2   115  THR115      0.2618
     70  O         -3.9130    7.7740   17.5370 O.2   115  THR115     -0.2717
     71  CB        -1.7370   10.1480   18.4050 C.3   115  THR115      0.1784
     72  OG1       -1.5520    9.0090   19.2760 O.3   115  THR115     -0.2211
     73  CG2       -1.6690   11.4370   19.2150 C.3   115  THR115      0.0376
     74  N         -2.3780    8.4900   16.0070 N.am  116  GLY116     -0.1942
     75  CA        -2.3840    7.2760   15.2260 C.3   116  GLY116      0.2014
     76  C         -1.8110    6.1370   16.0330 C.2   116  GLY116      0.2639
     77  O         -1.8410    4.9930   15.5970 O.2   116  GLY116     -0.2714
     78  N         -1.2250    6.4630   17.1810 N.am  117  SER117     -0.1949
     79  CA        -0.7110    5.4370   18.0870 C.3   117  SER117      0.1924
     80  C         -1.8590    4.5820   18.6280 C.2   117  SER117      0.2314
     81  O         -1.7340    3.3590   18.6650 O.2   117  SER117     -0.2863
     82  CB         0.0940    6.0830   19.2310 C.3   117  SER117      0.2116
     83  OG         1.2340    6.7970   18.7270 O.3   117  SER117     -0.2180
     84  N          4.7680    5.4580   20.5210 N.3   153  HIS153     -0.1226
     85  CA         4.5350    6.7340   19.8590 C.3   153  HIS153      0.1752
     86  C          5.5760    6.9450   18.7930 C.2   153  HIS153      0.2596
     87  O          6.4220    6.0800   18.5690 O.2   153  HIS153     -0.2718
     88  CB         4.5730    7.8830   20.8730 C.3   153  HIS153      0.0759
     89  CG         3.8470    9.1190   20.4200 C.ar  153  HIS153      0.0818
     90  ND1        2.5920    9.0780   19.8510 N.ar  153  HIS153     -0.2268
     91  CD2        4.2050   10.4230   20.4330 C.ar  153  HIS153      0.1154
     92  CE1        2.2070   10.3020   19.5380 C.ar  153  HIS153      0.1986
     93  NE2        3.1680   11.1380   19.8820 N.ar  153  HIS153     -0.2212
     94  N          5.5450    8.1180   18.1770 N.am  154  ASP154     -0.1974
     95  CA         6.3270    8.4300   16.9930 C.3   154  ASP154      0.1709
     96  C          7.8120    8.2600   17.2270 C.2   154  ASP154      0.2293
     97  O          8.3910    8.9220   18.0950 O.2   154  ASP154     -0.2864
     98  CB         6.0320    9.8680   16.5530 C.3   154  ASP154      0.1436
     99  CG         4.5520   10.1040   16.3150 C.2   154  ASP154      0.3671
    100  OD1        3.6990    9.7180   17.1370 O.co2 154  ASP154     -0.2456
    101  OD2        4.2210   10.6210   15.2530 O.co2 154  ASP154     -0.2456
    102  N          5.2670    6.3850    7.6600 N.3   180  GLN180     -0.1245
    103  CA         4.2080    7.3790    7.4530 C.3   180  GLN180      0.1566
    104  C          4.8380    8.7440    7.1970 C.2   180  GLN180      0.2260
    105  O          6.0540    8.9070    7.3590 O.2   180  GLN180     -0.2867
    106  CB         3.2830    7.4390    8.6820 C.3   180  GLN180      0.0367
    107  CG         3.9990    7.7690   10.0070 C.3   180  GLN180      0.0905
    108  CD         3.2040    7.3770   11.2460 C.2   180  GLN180      0.2608
    109  OE1        3.0670    6.1910   11.5720 O.2   180  GLN180     -0.2717
    110  NE2        2.6880    8.3690   11.9530 N.am  180  GLN180     -0.0878
    111  N          4.4120   13.0480    7.7350 N.3   182  TYR182     -0.1241
    112  CA         3.7370   14.1980    8.3160 C.3   182  TYR182      0.1605
    113  C          3.4270   15.1680    7.1850 C.2   182  TYR182      0.2264
    114  O          4.1400   15.2420    6.1940 O.2   182  TYR182     -0.2867
    115  CB         4.6220   14.8880    9.3700 C.3   182  TYR182      0.0534
    116  CG         5.0580   13.9980   10.5210 C.ar  182  TYR182     -0.0201
    117  CD1        4.2630   12.9380   10.9590 C.ar  182  TYR182     -0.0009
    118  CD2        6.2350   14.2590   11.2120 C.ar  182  TYR182     -0.0009
    119  CE1        4.6320   12.1660   12.0420 C.ar  182  TYR182      0.0417
    120  CE2        6.6180   13.4830   12.3040 C.ar  182  TYR182      0.0417
    121  CZ         5.8130   12.4430   12.7060 C.ar  182  TYR182      0.1957
    122  OH         6.2330   11.6420   13.7310 O.3   182  TYR182     -0.2866
@<TRIPOS>BOND
     1   114   113    2
     2    49    50    2
     3    49    48    1
     4   113   112    1
     5   104   105    2
     6   104   103    1
     7    47    48    1
     8   103   102    1
     9   103   106    1
    10   111   112    1
    11    48    51    1
    12   112   115    1
    13    51    52    1
    14   106   107    1
    15    42    43    2
    16    42    41    1
    17   115   116    1
    18    46    44    1
    19    41    44    1
    20    41    40    1
    21    52    53    1
    22   107   108    1
    23    53    54    1
    24   116   117   ar
    25   116   118   ar
    26    44    45    1
    27   117   119   ar
    28   118   120   ar
    29   108   109    2
    30   108   110   am
    31    56    55    1
    32    54    55    2
    33   119   121   ar
    34   120   121   ar
    35    55    57    1
    36   121   122    1
    37    38    37    1
    38    38    39    2
    39    37    36    1
    40    36    33   am
    41    31    32    1
    42    33    32    1
    43    33    34    2
    44    32    35    1
    45    75    74    1
    46    75    76    1
    47   101    99   ar
    48    77    76    2
    49    30    28   ar
    50    30    29   ar
    51    28    26   ar
    52    74    69   am
    53    76    78   am
    54    99    98    1
    55    99   100   ar
    56    18    19   ar
    57    18    16   ar
    58    98    95    1
    59    29    27   ar
    60    95    96    1
    61    95    94    1
    62    69    70    2
    63    69    68    1
    64    19    17   ar
    65    78    79    1
    66    96    97    2
    67    26    25   ar
    68    16    14   ar
    69    68    71    1
    70    68    67    1
    71    27    25   ar
    72    79    80    1
    73    79    82    1
    74    94    86   am
    75    25    24    1
    76    23    22    2
    77    17    15   ar
    78    71    73    1
    79    71    72    1
    80     1     2    1
    81    87    86    2
    82    80    81    2
    83    14    15   ar
    84    14    13    1
    85    83    82    1
    86    86    85    1
    87    12    11    2
    88     5     2    1
    89     5     6    1
    90    22    21    1
    91    92    90   ar
    92    92    93   ar
    93     8     6   ar
    94    13    10    1
    95     2     3    1
    96    24    21    1
    97    21    20    1
    98    90    89   ar
    99    85    84    1
   100    85    88    1
   101    93    91   ar
   102     6     7   ar
   103    11    10    1
   104    89    91   ar
   105    89    88    1
   106    10     9    1
   107     4     3    2
   108    66    65    1
   109    65    64    1
   110    61    60    2
   111    64    63    1
   112    63    62    1
   113    60    59    1
   114    62    59    1
   115    58    59    1
