@<TRIPOS>MOLECULE
tmp/1wdqA00.pdb
 185 174 0 0 0
SMALL
GASTEIGER

@<TRIPOS>ATOM
      1  N         -3.8290   35.0010   15.3990 N.3    15  MET15      -0.1245
      2  CA        -3.0200   33.8180   15.2110 C.3    15  MET15       0.1570
      3  C         -3.7200   32.7890   14.3230 C.2    15  MET15       0.2261
      4  O         -4.9070   32.5360   14.4660 O.2    15  MET15      -0.2867
      5  CB        -2.7400   33.1410   16.5540 C.3    15  MET15       0.0387
      6  CG        -2.0310   33.9920   17.5580 C.3    15  MET15       0.0595
      7  SD        -1.6080   32.9830   18.9880 S.3    15  MET15      -0.1393
      8  CE        -1.0360   34.2810   20.0740 C.3    15  MET15       0.0692
      9  N         -2.9230   26.2020   14.6990 N.3    18  LEU18      -0.1245
     10  CA        -1.7460   25.3900   14.8260 C.3    18  LEU18       0.1561
     11  C         -1.8140   24.3160   13.7400 C.2    18  LEU18       0.2260
     12  O         -2.8180   23.6370   13.4500 O.2    18  LEU18      -0.2867
     13  CB        -1.6420   24.7510   16.2260 C.3    18  LEU18       0.0270
     14  CG        -1.4490   25.7250   17.3930 C.3    18  LEU18       0.0019
     15  CD1       -1.5700   24.9470   18.7340 C.3    18  LEU18       0.0001
     16  CD2       -0.1250   26.4640   17.3320 C.3    18  LEU18       0.0001
     17  N         -0.6330   36.0190   12.6130 N.3    49  MET49      -0.1245
     18  CA         0.6020   35.5130   13.1810 C.3    49  MET49       0.1570
     19  C          0.6880   34.0210   12.9140 C.2    49  MET49       0.2261
     20  O         -0.3160   33.3270   13.0150 O.2    49  MET49      -0.2867
     21  CB         0.6580   35.7780   14.6830 C.3    49  MET49       0.0387
     22  CG         1.8850   35.2440   15.4080 C.3    49  MET49       0.0595
     23  SD         1.8240   35.4610   17.2110 S.3    49  MET49      -0.1393
     24  CE         2.3650   37.1650   17.3960 C.3    49  MET49       0.0692
     25  N          3.4490   30.4450   13.5480 N.3    51  ASP51      -0.1239
     26  CA         4.6840   29.7480   13.8940 C.3    51  ASP51       0.1674
     27  C          5.3640   29.2420   12.6070 C.2    51  ASP51       0.2266
     28  O          4.6900   28.5820   11.8080 O.2    51  ASP51      -0.2867
     29  CB         4.4150   28.5240   14.7420 C.3    51  ASP51       0.1410
     30  CG         3.9500   28.8540   16.1560 C.2    51  ASP51       0.3668
     31  OD1        4.7920   29.1850   16.9910 O.co2  51  ASP51      -0.2456
     32  OD2        2.7200   28.7400   16.3710 O.co2  51  ASP51      -0.2456
     33  N          7.8510   26.7360   12.1570 N.3    53  TRP53      -0.1241
     34  CA         8.3600   25.6920   13.0220 C.3    53  TRP53       0.1605
     35  C          9.7140   25.1370   12.5780 C.2    53  TRP53       0.2264
     36  O          9.8060   24.5180   11.5100 O.2    53  TRP53      -0.2867
     37  CB         7.3850   24.5300   13.1490 C.3    53  TRP53       0.0550
     38  CG         6.0790   24.8660   13.8250 C.ar   53  TRP53       0.0003
     39  CD1        4.8650   25.0190   13.2450 C.ar   53  TRP53       0.0946
     40  CD2        5.8760   25.0560   15.2560 C.ar   53  TRP53       0.0152
     41  NE1        3.9090   25.3050   14.2000 N.ar   53  TRP53      -0.2442
     42  CE2        4.5040   25.3380   15.4440 C.ar   53  TRP53       0.0810
     43  CE3        6.7280   25.0200   16.3690 C.ar   53  TRP53       0.0012
     44  CZ2        3.9540   25.5940   16.6900 C.ar   53  TRP53       0.0191
     45  CZ3        6.1780   25.2760   17.6350 C.ar   53  TRP53       0.0001
     46  CH2        4.8170   25.5610   17.7800 C.ar   53  TRP53       0.0015
     47  N          6.7480   33.9570   13.5520 N.3    87  ILE87      -0.1245
     48  CA         7.4970   33.4890   14.7270 C.3    87  ILE87       0.1561
     49  C          8.5780   32.5310   14.2790 C.2    87  ILE87       0.2260
     50  O          8.3020   31.5400   13.5830 O.2    87  ILE87      -0.2867
     51  CB         6.6230   32.7970   15.7650 C.3    87  ILE87       0.0252
     52  CG1        5.2920   33.5350   16.0660 C.3    87  ILE87       0.0019
     53  CG2        7.3830   32.5380   17.0400 C.3    87  ILE87       0.0019
     54  CD1        4.2350   32.6480   16.7440 C.3    87  ILE87       0.0001
     55  N         10.9600   25.7320   19.1270 N.3    91  HIS91      -0.1226
     56  CA        10.4310   24.9360   20.2300 C.3    91  HIS91       0.1752
     57  C          9.4560   23.9070   19.6810 C.2    91  HIS91       0.2596
     58  O          9.0290   23.9640   18.5210 O.2    91  HIS91      -0.2718
     59  CB         9.7690   25.8830   21.2370 C.3    91  HIS91       0.0759
     60  CG         8.6020   26.6810   20.6910 C.ar   91  HIS91       0.0818
     61  ND1        8.8320   27.8160   19.9130 N.ar   91  HIS91      -0.2268
     62  CD2        7.2700   26.5230   20.7840 C.ar   91  HIS91       0.1154
     63  CE1        7.6630   28.2970   19.5890 C.ar   91  HIS91       0.1986
     64  NE2        6.6630   27.5440   20.0910 N.ar   91  HIS91      -0.2212
     65  N          9.0620   22.9940   20.5590 N.am   92  GLN92      -0.1965
     66  CA         8.1130   21.9430   20.2610 C.3    92  GLN92       0.1733
     67  C          6.6730   22.3990   20.4300 C.2    92  GLN92       0.2616
     68  O          6.3440   23.1180   21.3860 O.2    92  GLN92      -0.2715
     69  CB         8.3890   20.7540   21.2160 C.3    92  GLN92       0.0408
     70  CG         7.3590   19.6420   21.2200 C.3    92  GLN92       0.0908
     71  CD         7.7920   18.6430   22.2760 C.2    92  GLN92       0.2608
     72  OE1        8.5760   17.7550   21.9870 O.2    92  GLN92      -0.2717
     73  NE2        7.2760   18.8060   23.4520 N.am   92  GLN92      -0.0878
     74  N          5.8080   21.9520   19.5100 N.am   93  CYS93      -0.1968
     75  CA         4.3950   22.0620   19.7200 C.3    93  CYS93       0.1712
     76  C          3.8360   20.7360   20.2550 C.2    93  CYS93       0.2296
     77  O          4.2000   19.6800   19.7130 O.2    93  CYS93      -0.2864
     78  CB         3.6630   22.4440   18.4440 C.3    93  CYS93       0.0983
     79  SG         1.9580   23.0410   18.7330 S.3    93  CYS93      -0.0798
     80  N          2.1620   22.1610   25.8240 N.3    96  ASN96      -0.1225
     81  CA         1.6810   23.3330   26.5530 C.3    96  ASN96       0.1785
     82  C          0.1980   23.5990   26.3440 C.2    96  ASN96       0.2597
     83  O         -0.4270   22.9870   25.4700 O.2    96  ASN96      -0.2718
     84  CB         2.5140   24.5230   26.0750 C.3    96  ASN96       0.1169
     85  CG         3.9170   24.3800   26.6090 C.2    96  ASN96       0.2627
     86  OD1        4.1450   24.1880   27.8100 O.2    96  ASN96      -0.2716
     87  ND2        4.8970   24.5210   25.7440 N.am   96  ASN96      -0.0877
     88  N         -0.4110   24.4950   27.1240 N.am   97  VAL97      -0.1980
     89  CA        -1.8520   24.7060   27.0570 C.3    97  VAL97       0.1595
     90  C         -2.3260   25.0160   25.6450 C.2    97  VAL97       0.2287
     91  O         -1.7100   25.8240   24.9540 O.2    97  VAL97      -0.2864
     92  CB        -2.3160   25.8020   28.0600 C.3    97  VAL97       0.0276
     93  CG1       -1.6700   27.1730   27.8290 C.3    97  VAL97       0.0022
     94  CG2       -3.8320   25.8740   27.9760 C.3    97  VAL97       0.0022
     95  N         -2.1440   23.1280   23.1220 N.3    99  ASP99      -0.1239
     96  CA        -1.4380   22.5310   21.9640 C.3    99  ASP99       0.1674
     97  C         -2.2080   21.2850   21.4810 C.2    99  ASP99       0.2266
     98  O         -2.2790   20.3030   22.2410 O.2    99  ASP99      -0.2867
     99  CB        -0.0010   22.1820   22.2600 C.3    99  ASP99       0.1410
    100  CG         0.9170   23.3520   22.4800 C.2    99  ASP99       0.3668
    101  OD1        2.1050   23.0970   22.8390 O.co2  99  ASP99      -0.2456
    102  OD2        0.4260   24.4800   22.3110 O.co2  99  ASP99      -0.2456
    103  N          7.1870   27.4720   24.1650 N.3   182  ALA182     -0.1231
    104  CA         6.0530   28.2070   23.6400 C.3   182  ALA182      0.1694
    105  C          6.5120   29.5040   22.9890 C.2   182  ALA182      0.2593
    106  O          5.7380   30.4440   22.8300 O.2   182  ALA182     -0.2718
    107  CB         4.9850   28.4550   24.7080 C.3   182  ALA182      0.0304
    108  N          7.7760   29.5420   22.5580 N.am  183  GLY183     -0.1942
    109  CA         8.3930   30.7020   21.9500 C.3   183  GLY183      0.2014
    110  C          8.7970   31.7700   22.9300 C.2   183  GLY183      0.2638
    111  O          9.3260   32.8060   22.4940 O.2   183  GLY183     -0.2714
    112  N          8.5990   31.6100   24.2300 N.am  184  GLU184     -0.1977
    113  CA         8.7650   32.6590   25.2130 C.3   184  GLU184      0.1602
    114  C         10.1430   32.5980   25.8510 C.2   184  GLU184      0.2287
    115  O         10.7140   31.5420   26.0410 O.2   184  GLU184     -0.2864
    116  CB         7.6720   32.4850   26.2830 C.3   184  GLU184      0.0415
    117  CG         6.2790   32.7770   25.7220 C.3   184  GLU184      0.1163
    118  CD         5.1180   32.2300   26.4650 C.2   184  GLU184      0.3649
    119  OE1        5.2370   31.2360   27.1710 O.co2 184  GLU184     -0.2457
    120  OE2        4.0230   32.8090   26.2820 O.co2 184  GLU184     -0.2457
    121  N          8.7290   37.3250   23.0650 N.3   293  LYS293     -0.1245
    122  CA         7.5470   37.0130   23.8770 C.3   293  LYS293      0.1561
    123  C          7.9420   36.7800   25.3310 C.2   293  LYS293      0.2260
    124  O          8.8300   35.9850   25.6230 O.2   293  LYS293     -0.2867
    125  CB         6.8220   35.8130   23.3530 C.3   293  LYS293      0.0271
    126  CG         6.3850   35.9610   21.8690 C.3   293  LYS293      0.0035
    127  CD         5.2910   34.9930   21.5280 C.3   293  LYS293      0.0206
    128  CE         4.9050   35.0210   20.0540 C.3   293  LYS293      0.1093
    129  NZ         3.6420   34.2950   19.8330 N.3   293  LYS293     -0.1314
    130  N          2.3490   38.0420   26.7890 N.3   340  VAL340     -0.1245
    131  CA         1.3770   37.1310   26.2310 C.3   340  VAL340      0.1561
    132  C          0.2190   36.7020   27.1240 C.2   340  VAL340      0.2260
    133  O         -0.5080   35.7610   26.8450 O.2   340  VAL340     -0.2867
    134  CB         2.1000   35.8760   25.6790 C.3   340  VAL340      0.0252
    135  CG1        3.2200   36.2140   24.7230 C.3   340  VAL340      0.0019
    136  CG2        2.6210   35.1350   26.8240 C.3   340  VAL340      0.0019
    137  N         -0.7950   39.6120   23.7730 N.3   378  GLU378     -0.1182
    138  CA        -1.6640   38.5410   23.3390 C.3   378  GLU378      0.1915
    139  C         -2.6180   38.1570   24.4690 C.2   378  GLU378      0.2634
    140  O         -2.2110   38.2540   25.6330 O.2   378  GLU378     -0.2714
    141  CB        -0.9100   37.2810   22.9790 C.2   378  GLU378      0.0085
    142  CG         0.1140   37.3570   21.9320 C.2   378  GLU378      0.0835
    143  CD         1.0440   36.2170   21.6930 C.2   378  GLU378      0.3877
    144  OE1        0.8710   35.2050   22.4060 O.co2 378  GLU378     -0.2406
    145  OE2        1.8910   36.2370   20.7700 O.co2 378  GLU378     -0.2406
    146  N         -3.8020   37.6230   24.1510 N.am  379  ASN379     -0.1958
    147  CA        -4.5330   36.9200   25.1920 C.3   379  ASN379      0.1819
    148  C         -3.9010   35.5420   25.4200 C.2   379  ASN379      0.2621
    149  O         -3.4890   34.8700   24.4720 O.2   379  ASN379     -0.2715
    150  CB        -6.0090   36.7780   24.8380 C.3   379  ASN379      0.1195
    151  CG        -6.2590   36.0720   23.5100 C.2   379  ASN379      0.2630
    152  OD1       -5.7470   36.5580   22.4840 O.2   379  ASN379     -0.2716
    153  ND2       -7.0430   35.0120   23.4950 N.am  379  ASN379     -0.0877
    154  N         -3.8790   35.0860   26.6720 N.am  380  ALA380     -0.1963
    155  CA        -3.3090   33.7990   27.0300 C.3   380  ALA380      0.1728
    156  C         -4.1800   32.6140   26.6550 C.2   380  ALA380      0.2616
    157  O         -3.6910   31.5880   26.1940 O.2   380  ALA380     -0.2715
    158  CB        -2.9940   33.7100   28.5220 C.3   380  ALA380      0.0334
    159  N         -5.4860   32.7540   26.9420 N.am  381  LEU381     -0.1977
    160  CA        -6.4690   31.6920   26.7960 C.3   381  LEU381      0.1596
    161  C         -7.5550   32.0710   25.8140 C.2   381  LEU381      0.2287
    162  O         -7.8580   33.2660   25.6510 O.2   381  LEU381     -0.2864
    163  CB        -7.0900   31.3530   28.1580 C.3   381  LEU381      0.0297
    164  CG        -6.0930   30.8910   29.2180 C.3   381  LEU381      0.0022
    165  CD1       -6.8530   30.6050   30.5200 C.3   381  LEU381      0.0001
    166  CD2       -5.3550   29.6750   28.7400 C.3   381  LEU381      0.0001
    167  N         -5.3540   35.1580   20.0890 N.3   417  LEU417     -0.1231
    168  CA        -5.3210   33.7150   20.0790 C.3   417  LEU417      0.1693
    169  C         -6.7390   33.1790   20.0620 C.2   417  LEU417      0.2591
    170  O         -7.4340   33.4420   21.0470 O.2   417  LEU417     -0.2718
    171  CB        -4.5140   33.1930   21.2960 C.3   417  LEU417      0.0284
    172  CG        -4.2820   31.7210   21.4800 C.3   417  LEU417      0.0019
    173  CD1       -3.0670   31.5480   22.4220 C.3   417  LEU417      0.0001
    174  CD2       -5.4490   30.8880   21.9880 C.3   417  LEU417      0.0001
    175  N         -7.2610   32.5050   19.0570 N.am  418  ARG418     -0.1980
    176  CA        -6.6730   32.1690   17.7780 C.3   418  ARG418      0.1597
    177  C         -7.8010   31.9900   16.7830 C.2   418  ARG418      0.2287
    178  O         -8.9470   31.7780   17.1580 O.2   418  ARG418     -0.2864
    179  CB        -5.9690   30.8270   17.9560 C.3   418  ARG418      0.0334
    180  CG        -5.1530   30.1900   16.9380 C.3   418  ARG418      0.0492
    181  CD        -4.7700   28.7700   17.4390 C.3   418  ARG418      0.2205
    182  NE        -3.8220   28.8060   18.5340 N.pl3 418  ARG418     -0.0865
    183  CZ        -2.5440   29.1660   18.4780 C.cat 418  ARG418      0.5346
    184  NH1       -1.7730   29.1370   19.5900 N.pl3 418  ARG418      0.1354
    185  NH2       -2.0130   29.5420   17.3470 N.pl3 418  ARG418      0.1354
@<TRIPOS>BOND
     1    36    35    2
     2    28    27    2
     3    33    34    1
     4    35    34    1
     5    27    26    1
     6    17    18    1
     7    19    20    2
     8    19    18    1
     9    34    37    1
    10    37    38    1
    11    18    21    1
    12    39    38   ar
    13    39    41   ar
    14    12    11    2
    15    25    26    1
    16    47    48    1
    17    50    49    2
    18    11    10    1
    19    38    40   ar
    20    26    29    1
    21    41    42   ar
    22    49    48    1
    23     3     4    2
    24     3     2    1
    25    21    22    1
    26     9    10    1
    27    48    51    1
    28    29    30    1
    29    10    13    1
    30     2     1    1
    31     2     5    1
    32    40    42   ar
    33    40    43   ar
    34    22    23    1
    35    42    44   ar
    36    51    52    1
    37    51    53    1
    38    52    54    1
    39    30    32   ar
    40    30    31   ar
    41    13    14    1
    42    43    45   ar
    43     5     6    1
    44    44    46   ar
    45   177   178    2
    46   177   176    1
    47   180   181    1
    48   180   179    1
    49    23    24    1
    50    16    14    1
    51   185   183    1
    52    14    15    1
    53   181   182    1
    54     6     7    1
    55    45    46   ar
    56   176   179    1
    57   176   175    1
    58    78    79    1
    59    78    75    1
    60   183   182    2
    61   183   184    1
    62    58    57    2
    63     7     8    1
    64   175   169   am
    65    55    56    1
    66    74    75    1
    67    74    67   am
    68    63    61   ar
    69    63    64   ar
    70    57    56    1
    71    57    65   am
    72    77    76    2
    73    75    76    1
    74   129   128    1
    75    61    60   ar
    76   128   127    1
    77   169   168    1
    78   169   170    2
    79   168   167    1
    80   168   171    1
    81    64    62   ar
    82    56    59    1
    83    66    67    1
    84    66    65    1
    85    66    69    1
    86    67    68    2
    87    60    62   ar
    88    60    59    1
    89   145   143   ar
    90    69    70    1
    91    70    71    1
    92   171   172    1
    93   172   174    1
    94   172   173    1
    95    97    96    1
    96    97    98    2
    97   127   126    1
    98   143   142    1
    99   143   144   ar
   100   126   125    1
   101   142   141    2
   102   109   108    1
   103   109   110    1
   104    96    99    1
   105    96    95    1
   106    72    71    2
   107    99   100    1
   108    71    73   am
   109   102   100   ar
   110   100   101   ar
   111   152   151    2
   112   111   110    2
   113   108   105   am
   114   106   105    2
   115   110   112   am
   116   141   138    1
   117   105   104    1
   118   121   122    1
   119   138   137    1
   120   138   139    1
   121   125   122    1
   122   153   151   am
   123   151   150    1
   124   104   103    1
   125   104   107    1
   126   122   123    1
   127   146   139   am
   128   146   147    1
   129   112   113    1
   130   139   140    2
   131   149   148    2
   132   135   134    1
   133   150   147    1
   134    91    90    2
   135   147   148    1
   136   113   114    1
   137   113   116    1
   138   123   124    2
   139   148   154   am
   140    83    82    2
   141    90    89    1
   142   162   161    2
   143   134   131    1
   144   134   136    1
   145   117   116    1
   146   117   118    1
   147    87    85   am
   148   161   160    1
   149    80    81    1
   150   114   115    2
   151    84    81    1
   152    84    85    1
   153   157   156    2
   154   131   130    1
   155   131   132    1
   156   120   118   ar
   157    82    81    1
   158    82    88   am
   159   118   119   ar
   160    85    86    2
   161   156   159   am
   162   156   155    1
   163   154   155    1
   164   160   159    1
   165   160   163    1
   166   133   132    2
   167   155   158    1
   168    89    88    1
   169    89    92    1
   170    93    92    1
   171    94    92    1
   172   163   164    1
   173   166   164    1
   174   164   165    1
