@<TRIPOS>MOLECULE
tmp/1wdqA01.pdb
 163 156 0 0 0
SMALL
GASTEIGER

@<TRIPOS>ATOM
      1  N          2.1620   22.1610   25.8240 N.3    96  ASN96      -0.1225
      2  CA         1.6810   23.3330   26.5530 C.3    96  ASN96       0.1785
      3  C          0.1980   23.5990   26.3440 C.2    96  ASN96       0.2597
      4  O         -0.4270   22.9870   25.4700 O.2    96  ASN96      -0.2718
      5  CB         2.5140   24.5230   26.0750 C.3    96  ASN96       0.1169
      6  CG         3.9170   24.3800   26.6090 C.2    96  ASN96       0.2627
      7  OD1        4.1450   24.1880   27.8100 O.2    96  ASN96      -0.2716
      8  ND2        4.8970   24.5210   25.7440 N.am   96  ASN96      -0.0877
      9  N         -0.4110   24.4950   27.1240 N.am   97  VAL97      -0.1980
     10  CA        -1.8520   24.7060   27.0570 C.3    97  VAL97       0.1595
     11  C         -2.3260   25.0160   25.6450 C.2    97  VAL97       0.2287
     12  O         -1.7100   25.8240   24.9540 O.2    97  VAL97      -0.2864
     13  CB        -2.3160   25.8020   28.0600 C.3    97  VAL97       0.0276
     14  CG1       -1.6700   27.1730   27.8290 C.3    97  VAL97       0.0022
     15  CG2       -3.8320   25.8740   27.9760 C.3    97  VAL97       0.0022
     16  N          7.1870   27.4720   24.1650 N.3   182  ALA182     -0.1245
     17  CA         6.0530   28.2070   23.6400 C.3   182  ALA182      0.1562
     18  C          6.5120   29.5040   22.9890 C.2   182  ALA182      0.2260
     19  O          5.7380   30.4440   22.8300 O.2   182  ALA182     -0.2867
     20  CB         4.9850   28.4550   24.7080 C.3   182  ALA182      0.0290
     21  N          8.5990   31.6100   24.2300 N.3   184  GLU184     -0.1245
     22  CA         8.7650   32.6590   25.2130 C.3   184  GLU184      0.1567
     23  C         10.1430   32.5980   25.8510 C.2   184  GLU184      0.2260
     24  O         10.7140   31.5420   26.0410 O.2   184  GLU184     -0.2867
     25  CB         7.6720   32.4850   26.2830 C.3   184  GLU184      0.0388
     26  CG         6.2790   32.7770   25.7220 C.3   184  GLU184      0.1160
     27  CD         5.1180   32.2300   26.4650 C.2   184  GLU184      0.3649
     28  OE1        5.2370   31.2360   27.1710 O.co2 184  GLU184     -0.2457
     29  OE2        4.0230   32.8090   26.2820 O.co2 184  GLU184     -0.2457
     30  N         11.7650   32.2330   28.7160 N.3   186  ARG186     -0.1245
     31  CA        11.4550   31.6690   30.0230 C.3   186  ARG186      0.1563
     32  C         12.0580   30.2820   30.1270 C.2   186  ARG186      0.2260
     33  O         12.4000   29.6780   29.1270 O.2   186  ARG186     -0.2867
     34  CB         9.9500   31.5640   30.2590 C.3   186  ARG186      0.0307
     35  CG         9.2760   30.5560   29.3560 C.3   186  ARG186      0.0489
     36  CD         7.8110   30.5370   29.5590 C.3   186  ARG186      0.2205
     37  NE         6.9470   29.6170   28.8390 N.pl3 186  ARG186     -0.0865
     38  CZ         6.7290   28.3580   29.1690 C.cat 186  ARG186      0.5346
     39  NH1        7.4540   27.8350   30.1700 N.pl3 186  ARG186      0.1354
     40  NH2        5.8550   27.6080   28.5360 N.pl3 186  ARG186      0.1354
     41  N          6.6950   25.1650   34.4000 N.3   190  TYR190     -0.1241
     42  CA         5.3310   24.6710   34.5890 C.3   190  TYR190      0.1605
     43  C          4.9350   23.7050   33.4780 C.2   190  TYR190      0.2264
     44  O          4.0010   23.9660   32.7190 O.2   190  TYR190     -0.2867
     45  CB         4.3680   25.8280   34.7090 C.3   190  TYR190      0.0534
     46  CG         4.4270   26.9280   33.6670 C.ar  190  TYR190     -0.0201
     47  CD1        5.3890   27.9230   33.7230 C.ar  190  TYR190     -0.0009
     48  CD2        3.5090   26.9930   32.6310 C.ar  190  TYR190     -0.0009
     49  CE1        5.4660   28.9420   32.7920 C.ar  190  TYR190      0.0417
     50  CE2        3.5700   28.0040   31.6820 C.ar  190  TYR190      0.0417
     51  CZ         4.5410   28.9660   31.7800 C.ar  190  TYR190      0.1957
     52  OH         4.6390   29.9830   30.8560 O.3   190  TYR190     -0.2866
     53  N          3.1820   20.8800   31.8060 N.3   192  GLN192     -0.1245
     54  CA         2.0890   19.9190   31.8620 C.3   192  GLN192      0.1566
     55  C          2.5970   18.4760   31.6430 C.2   192  GLN192      0.2260
     56  O          2.0580   17.5420   32.2610 O.2   192  GLN192     -0.2867
     57  CB         0.9850   20.2450   30.8290 C.3   192  GLN192      0.0367
     58  CG         0.2100   21.4890   31.2520 C.3   192  GLN192      0.0905
     59  CD        -0.9360   21.8830   30.3560 C.2   192  GLN192      0.2608
     60  OE1       -1.7380   22.7660   30.6540 O.2   192  GLN192     -0.2717
     61  NE2       -1.0630   21.2490   29.2070 N.am  192  GLN192     -0.0878
     62  N          2.6600   19.1700   36.1140 N.3   196  TRP196     -0.1241
     63  CA         2.2790   20.4560   36.6680 C.3   196  TRP196      0.1605
     64  C          0.8090   20.7790   36.3890 C.2   196  TRP196      0.2264
     65  O          0.3610   20.5190   35.2610 O.2   196  TRP196     -0.2867
     66  CB         3.1500   21.6130   36.1740 C.3   196  TRP196      0.0550
     67  CG         2.7090   22.9780   36.6140 C.ar  196  TRP196      0.0003
     68  CD1        3.0650   23.6420   37.7570 C.ar  196  TRP196      0.0946
     69  CD2        1.8410   23.8750   35.9180 C.ar  196  TRP196      0.0152
     70  NE1        2.4690   24.8830   37.8350 N.ar  196  TRP196     -0.2442
     71  CE2        1.7190   25.0420   36.7050 C.ar  196  TRP196      0.0810
     72  CE3        1.1530   23.8020   34.6980 C.ar  196  TRP196      0.0012
     73  CZ2        0.9450   26.1210   36.3270 C.ar  196  TRP196      0.0191
     74  CZ3        0.3860   24.8830   34.3190 C.ar  196  TRP196      0.0001
     75  CH2        0.2850   26.0370   35.1220 C.ar  196  TRP196      0.0015
     76  N         -1.8990   24.2010   37.2530 N.3   198  PHE198     -0.1241
     77  CA        -2.1130   25.4950   37.8440 C.3   198  PHE198      0.1605
     78  C         -2.7970   25.3690   39.2100 C.2   198  PHE198      0.2264
     79  O         -3.7560   24.5820   39.2920 O.2   198  PHE198     -0.2867
     80  CB        -3.0070   26.2910   36.9050 C.3   198  PHE198      0.0534
     81  CG        -3.3880   27.6660   37.3950 C.ar  198  PHE198     -0.0203
     82  CD1       -2.5590   28.7510   37.1040 C.ar  198  PHE198     -0.0042
     83  CD2       -4.5450   27.9210   38.1090 C.ar  198  PHE198     -0.0042
     84  CE1       -2.8990   30.0310   37.5440 C.ar  198  PHE198     -0.0003
     85  CE2       -4.8830   29.1550   38.5570 C.ar  198  PHE198     -0.0003
     86  CZ        -4.0720   30.2510   38.2800 C.ar  198  PHE198     -0.0000
     87  N          6.1510   35.5580   28.8960 N.3   295  SER295     -0.1202
     88  CA         5.0140   34.8800   29.4910 C.3   295  SER295      0.2020
     89  C          4.4670   35.6520   30.7080 C.2   295  SER295      0.2619
     90  O          5.2580   36.2910   31.4050 O.2   295  SER295     -0.2717
     91  CB         5.4220   33.4730   29.8780 C.3   295  SER295      0.2103
     92  OG         4.3010   32.7760   30.4100 O.3   295  SER295     -0.2182
     93  N          3.1480   35.5330   30.9230 N.am  296  GLY296     -0.1956
     94  CA         2.5050   36.1720   32.0400 C.3   296  GLY296      0.1869
     95  C          2.2840   35.2160   33.1960 C.2   296  GLY296      0.2309
     96  O          1.2860   34.4630   33.2270 O.2   296  GLY296     -0.2863
     97  N          1.1330   34.9950   36.4000 N.3   298  HIS298     -0.1226
     98  CA         0.3290   35.8150   37.3040 C.3   298  HIS298      0.1752
     99  C          0.0680   35.1400   38.6640 C.2   298  HIS298      0.2596
    100  O         -0.2980   35.8550   39.6180 O.2   298  HIS298     -0.2718
    101  CB        -1.0010   36.2340   36.6410 C.3   298  HIS298      0.0759
    102  CG        -1.7830   35.0830   36.1470 C.ar  298  HIS298      0.0818
    103  ND1       -2.5780   34.2710   36.8630 N.ar  298  HIS298     -0.2268
    104  CD2       -1.8240   34.5590   34.8910 C.ar  298  HIS298      0.1154
    105  CE1       -3.1500   33.3720   36.1470 C.ar  298  HIS298      0.1986
    106  NE2       -2.6650   33.5050   34.9260 N.ar  298  HIS298     -0.2212
    107  N          0.2290   33.8300   38.7370 N.am  299  TRP299     -0.1976
    108  CA        -0.0410   33.1160   39.9840 C.3   299  TRP299      0.1640
    109  C          1.1580   33.3580   40.9110 C.2   299  TRP299      0.2290
    110  O          2.3080   33.3750   40.5040 O.2   299  TRP299     -0.2864
    111  CB        -0.3970   31.6800   39.7060 C.3   299  TRP299      0.0576
    112  CG         0.4940   30.8130   38.8640 C.ar  299  TRP299      0.0006
    113  CD1        1.2810   29.8030   39.3290 C.ar  299  TRP299      0.0946
    114  CD2        0.7010   30.8520   37.4260 C.ar  299  TRP299      0.0152
    115  NE1        1.9690   29.2060   38.3060 N.ar  299  TRP299     -0.2442
    116  CE2        1.6150   29.8380   37.1340 C.ar  299  TRP299      0.0810
    117  CE3        0.1960   31.6120   36.3650 C.ar  299  TRP299      0.0012
    118  CZ2        2.0640   29.5660   35.8410 C.ar  299  TRP299      0.0191
    119  CZ3        0.6190   31.3650   35.0970 C.ar  299  TRP299      0.0001
    120  CH2        1.5520   30.3390   34.8320 C.ar  299  TRP299      0.0015
    121  N          2.3490   38.0420   26.7890 N.3   340  VAL340     -0.1231
    122  CA         1.3770   37.1310   26.2310 C.3   340  VAL340      0.1692
    123  C          0.2190   36.7020   27.1240 C.2   340  VAL340      0.2592
    124  O         -0.5080   35.7610   26.8450 O.2   340  VAL340     -0.2718
    125  CB         2.1000   35.8760   25.6790 C.3   340  VAL340      0.0266
    126  CG1        3.2200   36.2140   24.7230 C.3   340  VAL340      0.0020
    127  CG2        2.6210   35.1350   26.8240 C.3   340  VAL340      0.0020
    128  N         -0.0640   37.4730   28.1710 N.am  341  CYS341     -0.1970
    129  CA        -1.2340   37.2800   29.0090 C.3   341  CYS341      0.1712
    130  C         -1.9360   38.5740   29.2760 C.2   341  CYS341      0.2296
    131  O         -1.7560   39.1750   30.3700 O.2   341  CYS341     -0.2864
    132  CB        -0.7900   36.5660   30.3130 C.3   341  CYS341      0.0983
    133  SG        -2.1860   36.0660   31.3790 S.3   341  CYS341     -0.0798
    134  N         -6.8060   39.0710   31.1480 N.3   344  MET344     -0.1245
    135  CA        -7.3690   38.5900   32.4090 C.3   344  MET344      0.1570
    136  C         -7.6840   39.6940   33.4050 C.2   344  MET344      0.2261
    137  O         -7.0800   40.7310   33.4800 O.2   344  MET344     -0.2867
    138  CB        -6.4050   37.5920   33.0420 C.3   344  MET344      0.0387
    139  CG        -6.1170   36.3720   32.1940 C.3   344  MET344      0.0595
    140  SD        -5.1350   35.1850   33.1290 S.3   344  MET344     -0.1393
    141  CE        -5.1910   33.8240   31.9370 C.3   344  MET344      0.0692
    142  N         -9.6270   34.5960   38.6810 N.3   349  GLN349     -0.1245
    143  CA        -8.6860   33.5940   39.1500 C.3   349  GLN349      0.1566
    144  C         -9.0780   33.1590   40.5610 C.2   349  GLN349      0.2260
    145  O         -9.5660   33.9570   41.3560 O.2   349  GLN349     -0.2867
    146  CB        -7.2560   34.1350   39.0540 C.3   349  GLN349      0.0367
    147  CG        -6.7870   34.4340   37.5880 C.3   349  GLN349      0.0905
    148  CD        -6.6990   33.2340   36.7160 C.2   349  GLN349      0.2608
    149  OE1       -6.7650   33.2530   35.4640 O.2   349  GLN349     -0.2717
    150  NE2       -6.5650   32.0220   37.2480 N.am  349  GLN349     -0.0878
    151  N         -3.8790   35.0860   26.6720 N.3   380  ALA380     -0.1231
    152  CA        -3.3090   33.7990   27.0300 C.3   380  ALA380      0.1694
    153  C         -4.1800   32.6140   26.6550 C.2   380  ALA380      0.2591
    154  O         -3.6910   31.5880   26.1940 O.2   380  ALA380     -0.2718
    155  CB        -2.9940   33.7100   28.5220 C.3   380  ALA380      0.0304
    156  N         -5.4860   32.7540   26.9420 N.am  381  LEU381     -0.1980
    157  CA        -6.4690   31.6920   26.7960 C.3   381  LEU381      0.1596
    158  C         -7.5550   32.0710   25.8140 C.2   381  LEU381      0.2287
    159  O         -7.8580   33.2660   25.6510 O.2   381  LEU381     -0.2864
    160  CB        -7.0900   31.3530   28.1580 C.3   381  LEU381      0.0297
    161  CG        -6.0930   30.8910   29.2180 C.3   381  LEU381      0.0022
    162  CD1       -6.8530   30.6050   30.5200 C.3   381  LEU381      0.0001
    163  CD2       -5.3550   29.6750   28.7400 C.3   381  LEU381      0.0001
@<TRIPOS>BOND
     1    19    18    2
     2    18    17    1
     3    17    16    1
     4    17    20    1
     5    21    22    1
     6   126   125    1
     7    12    11    2
     8    22    23    1
     9    22    25    1
    10     4     3    2
    11    11    10    1
    12   159   158    2
    13   125   122    1
    14   125   127    1
    15    26    25    1
    16    26    27    1
    17     8     6   am
    18   158   157    1
    19     1     2    1
    20    23    24    2
    21     5     2    1
    22     5     6    1
    23   154   153    2
    24   122   121    1
    25   122   123    1
    26    29    27   ar
    27     3     2    1
    28     3     9   am
    29    27    28   ar
    30     6     7    2
    31   153   156   am
    32   153   152    1
    33   151   152    1
    34   157   156    1
    35   157   160    1
    36   124   123    2
    37   152   155    1
    38    10     9    1
    39    10    13    1
    40   123   128   am
    41    14    13    1
    42    15    13    1
    43   160   161    1
    44   128   129    1
    45    40    38    1
    46    30    31    1
    47   163   161    1
    48    37    38    2
    49    37    36    1
    50    87    88    1
    51   129   130    1
    52   129   132    1
    53    33    32    2
    54    38    39    1
    55    61    59   am
    56   161   162    1
    57   130   131    2
    58    35    36    1
    59    35    34    1
    60    88    91    1
    61    88    89    1
    62    91    92    1
    63    31    32    1
    64    31    34    1
    65   132   133    1
    66    59    60    2
    67    59    58    1
    68    89    93   am
    69    89    90    2
    70    57    58    1
    71    57    54    1
    72    52    51    1
    73    93    94    1
    74   134   135    1
    75    55    54    1
    76    55    56    2
    77    50    51   ar
    78    50    48   ar
    79    51    49   ar
    80    53    54    1
    81   141   140    1
    82    94    95    1
    83   139   138    1
    84   139   140    1
    85   135   138    1
    86   135   136    1
    87    48    46   ar
    88    44    43    2
    89    49    47   ar
    90    95    96    2
    91   136   137    2
    92    43    42    1
    93    46    47   ar
    94    46    45    1
    95    74    72   ar
    96    74    75   ar
    97    41    42    1
    98    42    45    1
    99    72    69   ar
   100   120   119   ar
   101   120   118   ar
   102   104   106   ar
   103   104   102   ar
   104   106   105   ar
   105   119   117   ar
   106    75    73   ar
   107    65    64    2
   108   149   148    2
   109   118   116   ar
   110    69    67   ar
   111    69    71   ar
   112    62    63    1
   113   105   103   ar
   114   102   101    1
   115   102   103   ar
   116    66    67    1
   117    66    63    1
   118    73    71   ar
   119   117   114   ar
   120    64    63    1
   121    97    98    1
   122    67    68   ar
   123   101    98    1
   124    71    70   ar
   125   148   150   am
   126   148   147    1
   127    80    81    1
   128    80    77    1
   129    82    81   ar
   130    82    84   ar
   131   116   114   ar
   132   116   115   ar
   133    76    77    1
   134    98    99    1
   135    81    83   ar
   136   114   112   ar
   137    84    86   ar
   138   147   146    1
   139    68    70   ar
   140    77    78    1
   141    83    85   ar
   142    86    85   ar
   143   115   113   ar
   144    99   107   am
   145    99   100    2
   146   142   143    1
   147   107   108    1
   148   112   113   ar
   149   112   111    1
   150   146   143    1
   151   143   144    1
   152    78    79    2
   153   111   108    1
   154   108   109    1
   155   110   109    2
   156   144   145    2
