@<TRIPOS>MOLECULE
tmp/1wdrA02.pdb
 111 108 0 0 0
SMALL
GASTEIGER

@<TRIPOS>ATOM
      1  N         -0.3990   24.6520   27.1650 N.3    97  VAL97      -0.1245
      2  CA        -1.8480   24.8820   27.1010 C.3    97  VAL97       0.1561
      3  C         -2.3030   25.2050   25.6950 C.2    97  VAL97       0.2260
      4  O         -1.6810   26.0220   24.9910 O.2    97  VAL97      -0.2867
      5  CB        -2.3060   25.9740   28.0830 C.3    97  VAL97       0.0252
      6  CG1       -1.7310   27.3410   27.7290 C.3    97  VAL97       0.0019
      7  CG2       -3.8170   26.0290   28.1290 C.3    97  VAL97       0.0019
      8  N          6.6830   25.3710   34.3100 N.3   190  TYR190     -0.1241
      9  CA         5.3060   24.8810   34.4740 C.3   190  TYR190      0.1605
     10  C          4.9130   23.9050   33.3580 C.2   190  TYR190      0.2264
     11  O          4.0010   24.2080   32.5960 O.2   190  TYR190     -0.2867
     12  CB         4.3170   26.0450   34.5790 C.3   190  TYR190      0.0534
     13  CG         4.3920   27.1400   33.5430 C.ar  190  TYR190     -0.0201
     14  CD1        5.3770   28.1150   33.5990 C.ar  190  TYR190     -0.0009
     15  CD2        3.4760   27.1720   32.4890 C.ar  190  TYR190     -0.0009
     16  CE1        5.4620   29.1230   32.6460 C.ar  190  TYR190      0.0417
     17  CE2        3.5640   28.1850   31.5420 C.ar  190  TYR190      0.0417
     18  CZ         4.5440   29.1290   31.6270 C.ar  190  TYR190      0.1957
     19  OH         4.6890   30.1710   30.7270 O.3   190  TYR190     -0.2866
     20  N          3.1480   21.0940   31.6790 N.3   192  GLN192     -0.1245
     21  CA         2.0240   20.1960   31.7290 C.3   192  GLN192      0.1566
     22  C          2.5100   18.7590   31.4640 C.2   192  GLN192      0.2260
     23  O          1.9280   17.8270   32.0330 O.2   192  GLN192     -0.2867
     24  CB         0.9200   20.5560   30.7290 C.3   192  GLN192      0.0367
     25  CG         0.1940   21.8530   31.0370 C.3   192  GLN192      0.0905
     26  CD        -0.9580   22.2210   30.1400 C.2   192  GLN192      0.2608
     27  OE1       -1.8930   22.8940   30.5800 O.2   192  GLN192     -0.2717
     28  NE2       -0.9640   21.8120   28.8850 N.am  192  GLN192     -0.0878
     29  N          2.5210   19.3730   35.9490 N.3   196  TRP196     -0.1241
     30  CA         2.1750   20.6710   36.5290 C.3   196  TRP196      0.1605
     31  C          0.7260   21.0270   36.2020 C.2   196  TRP196      0.2264
     32  O          0.2880   20.7720   35.0660 O.2   196  TRP196     -0.2867
     33  CB         3.0930   21.7940   36.0540 C.3   196  TRP196      0.0550
     34  CG         2.6730   23.1750   36.4780 C.ar  196  TRP196      0.0003
     35  CD1        3.0140   23.8490   37.6060 C.ar  196  TRP196      0.0946
     36  CD2        1.8030   24.0880   35.7810 C.ar  196  TRP196      0.0152
     37  NE1        2.4460   25.0750   37.6620 N.ar  196  TRP196     -0.2442
     38  CE2        1.6910   25.2640   36.5480 C.ar  196  TRP196      0.0810
     39  CE3        1.1160   24.0070   34.5550 C.ar  196  TRP196      0.0012
     40  CZ2        0.9330   26.3600   36.1630 C.ar  196  TRP196      0.0191
     41  CZ3        0.3690   25.1060   34.1940 C.ar  196  TRP196      0.0001
     42  CH2        0.2840   26.2560   34.9860 C.ar  196  TRP196      0.0015
     43  N         -1.9150   24.4420   37.0960 N.3   198  PHE198     -0.1241
     44  CA        -2.1450   25.7300   37.6690 C.3   198  PHE198      0.1605
     45  C         -2.8240   25.6020   39.0170 C.2   198  PHE198      0.2264
     46  O         -3.8020   24.8370   39.1050 O.2   198  PHE198     -0.2867
     47  CB        -3.0530   26.5200   36.7020 C.3   198  PHE198      0.0534
     48  CG        -3.4170   27.9100   37.2230 C.ar  198  PHE198     -0.0203
     49  CD1       -2.5850   28.9990   36.9590 C.ar  198  PHE198     -0.0042
     50  CD2       -4.5660   28.1440   37.9220 C.ar  198  PHE198     -0.0042
     51  CE1       -2.9100   30.2670   37.3860 C.ar  198  PHE198     -0.0003
     52  CE2       -4.8910   29.3920   38.3800 C.ar  198  PHE198     -0.0003
     53  CZ        -4.0880   30.4690   38.1040 C.ar  198  PHE198     -0.0000
     54  N          3.2360   35.7340   30.7220 N.3   295  GLY295     -0.1225
     55  CA         2.5690   36.3650   31.8520 C.3   295  GLY295      0.1811
     56  C          2.3270   35.4120   32.9970 C.2   295  GLY295      0.2280
     57  O          1.3520   34.6610   32.9980 O.2   295  GLY295     -0.2866
     58  N          1.1320   35.1640   36.2320 N.3   297  HIS297     -0.1226
     59  CA         0.3510   35.9930   37.1420 C.3   297  HIS297      0.1752
     60  C          0.0800   35.3250   38.5050 C.2   297  HIS297      0.2596
     61  O         -0.3180   36.0360   39.4330 O.2   297  HIS297     -0.2718
     62  CB        -0.9380   36.4030   36.4200 C.3   297  HIS297      0.0759
     63  CG        -1.7590   35.2550   35.9320 C.ar  297  HIS297      0.0818
     64  ND1       -2.6380   34.4750   36.6240 N.ar  297  HIS297     -0.2268
     65  CD2       -1.7920   34.6650   34.7130 C.ar  297  HIS297      0.1154
     66  CE1       -3.2480   33.5430   35.9510 C.ar  297  HIS297      0.1986
     67  NE2       -2.6800   33.6490   34.7640 N.ar  297  HIS297     -0.2212
     68  N          0.2300   34.0100   38.5740 N.am  298  TRP298     -0.1976
     69  CA        -0.0450   33.2930   39.8120 C.3   298  TRP298      0.1640
     70  C          1.1030   33.5440   40.7810 C.2   298  TRP298      0.2290
     71  O          2.2720   33.5680   40.3460 O.2   298  TRP298     -0.2864
     72  CB        -0.3980   31.8360   39.5460 C.3   298  TRP298      0.0576
     73  CG         0.4850   31.0050   38.6590 C.ar  298  TRP298      0.0006
     74  CD1        1.3030   30.0010   39.0810 C.ar  298  TRP298      0.0946
     75  CD2        0.6530   31.0760   37.2180 C.ar  298  TRP298      0.0152
     76  NE1        1.9740   29.4200   38.0130 N.ar  298  TRP298     -0.2442
     77  CE2        1.5810   30.0750   36.8770 C.ar  298  TRP298      0.0810
     78  CE3        0.1130   31.8410   36.1640 C.ar  298  TRP298      0.0012
     79  CZ2        1.9990   29.8330   35.5690 C.ar  298  TRP298      0.0191
     80  CZ3        0.5280   31.6150   34.8900 C.ar  298  TRP298      0.0001
     81  CH2        1.4610   30.6180   34.5870 C.ar  298  TRP298      0.0015
     82  N         -7.1350   39.4660   30.9240 N.3   343  MET343     -0.1245
     83  CA        -7.4590   38.8970   32.2280 C.3   343  MET343      0.1570
     84  C         -7.7460   39.9360   33.2920 C.2   343  MET343      0.2261
     85  O         -7.1110   40.9810   33.3930 O.2   343  MET343     -0.2867
     86  CB        -6.2990   38.0560   32.7290 C.3   343  MET343      0.0387
     87  CG        -6.0090   36.8210   31.8710 C.3   343  MET343      0.0595
     88  SD        -4.7530   35.7840   32.6380 S.3   343  MET343     -0.1393
     89  CE        -5.2750   34.1890   32.0550 C.3   343  MET343      0.0692
     90  N         -9.7120   34.9210   38.5420 N.3   348  GLN348     -0.1245
     91  CA        -8.8000   33.8840   38.9350 C.3   348  GLN348      0.1566
     92  C         -9.1600   33.3810   40.3420 C.2   348  GLN348      0.2260
     93  O         -9.6820   34.1150   41.1530 O.2   348  GLN348     -0.2867
     94  CB        -7.3770   34.3730   38.9240 C.3   348  GLN348      0.0367
     95  CG        -6.9780   35.3250   37.8340 C.3   348  GLN348      0.0905
     96  CD        -7.1150   34.7060   36.4740 C.2   348  GLN348      0.2608
     97  OE1       -6.8410   33.4880   36.3760 O.2   348  GLN348     -0.2717
     98  NE2       -7.5200   35.6040   35.5260 N.am  348  GLN348     -0.0878
     99  N         -3.8840   35.6990   26.9630 N.3   379  ALA379     -0.1231
    100  CA        -3.2990   34.4450   27.3960 C.3   379  ALA379      0.1694
    101  C         -4.1050   33.2150   27.0360 C.2   379  ALA379      0.2591
    102  O         -3.5390   32.1730   26.6790 O.2   379  ALA379     -0.2718
    103  CB        -3.0680   34.4690   28.9200 C.3   379  ALA379      0.0304
    104  N         -5.4430   33.3030   27.1560 N.am  380  LEU380     -0.1980
    105  CA        -6.3390   32.1950   26.9650 C.3   380  LEU380      0.1596
    106  C         -7.4680   32.5380   25.9890 C.2   380  LEU380      0.2287
    107  O         -7.8140   33.7200   25.8400 O.2   380  LEU380     -0.2864
    108  CB        -6.9580   31.7400   28.2810 C.3   380  LEU380      0.0297
    109  CG        -5.9690   31.1820   29.3080 C.3   380  LEU380      0.0022
    110  CD1       -6.6550   31.0520   30.6760 C.3   380  LEU380      0.0001
    111  CD2       -5.4050   29.8420   28.8330 C.3   380  LEU380      0.0001
@<TRIPOS>BOND
     1     4     3    2
     2     3     2    1
     3   107   106    2
     4   106   105    1
     5   102   101    2
     6    99   100    1
     7   105   104    1
     8   105   108    1
     9   101   104   am
    10   101   100    1
    11     2     1    1
    12     2     5    1
    13   100   103    1
    14     6     5    1
    15     5     7    1
    16   108   109    1
    17   111   109    1
    18    28    26   am
    19   109   110    1
    20    26    27    2
    21    26    25    1
    22    54    55    1
    23    19    18    1
    24    24    25    1
    25    24    21    1
    26    82    83    1
    27    22    21    1
    28    22    23    2
    29    17    18   ar
    30    17    15   ar
    31    18    16   ar
    32    20    21    1
    33    55    56    1
    34    87    88    1
    35    87    86    1
    36    89    88    1
    37    83    86    1
    38    83    84    1
    39    15    13   ar
    40    11    10    2
    41    16    14   ar
    42    56    57    2
    43    84    85    2
    44    10     9    1
    45    13    14   ar
    46    13    12    1
    47    41    39   ar
    48    41    42   ar
    49     8     9    1
    50     9    12    1
    51    39    36   ar
    52    81    80   ar
    53    81    79   ar
    54    65    67   ar
    55    65    63   ar
    56    67    66   ar
    57    80    78   ar
    58    42    40   ar
    59    32    31    2
    60    98    96   am
    61    79    77   ar
    62    36    34   ar
    63    36    38   ar
    64    63    62    1
    65    63    64   ar
    66    29    30    1
    67    66    64   ar
    68    33    34    1
    69    33    30    1
    70    40    38   ar
    71    78    75   ar
    72    31    30    1
    73    58    59    1
    74    97    96    2
    75    62    59    1
    76    96    95    1
    77    34    35   ar
    78    38    37   ar
    79    47    48    1
    80    47    44    1
    81    77    75   ar
    82    77    76   ar
    83    49    48   ar
    84    49    51   ar
    85    43    44    1
    86    59    60    1
    87    75    73   ar
    88    48    50   ar
    89    51    53   ar
    90    35    37   ar
    91    44    45    1
    92    95    94    1
    93    50    52   ar
    94    76    74   ar
    95    53    52   ar
    96    60    68   am
    97    60    61    2
    98    90    91    1
    99    68    69    1
   100    73    74   ar
   101    73    72    1
   102    94    91    1
   103    91    92    1
   104    45    46    2
   105    72    69    1
   106    69    70    1
   107    92    93    2
   108    71    70    2
