@<TRIPOS>MOLECULE
tmp/1wdtA00.pdb
 171 165 0 0 0
SMALL
GASTEIGER

@<TRIPOS>ATOM
      1  N         14.0250   32.9140   13.5260 N.3    13  ALA13      -0.1231
      2  CA        13.6000   32.7230   12.1420 C.3    13  ALA13       0.1694
      3  C         14.2140   33.7900   11.2440 C.2    13  ALA13       0.2593
      4  O         14.3440   34.9460   11.6440 O.2    13  ALA13      -0.2718
      5  CB        12.0840   32.7870   12.0550 C.3    13  ALA13       0.0304
      6  N         14.5960   33.3950   10.0350 N.am   14  GLY14      -0.1942
      7  CA        15.1760   34.3320    9.0890 C.3    14  GLY14       0.2014
      8  C         16.6440   34.6950    9.2690 C.2    14  GLY14       0.2640
      9  O         17.1520   35.5750    8.5710 O.2    14  GLY14      -0.2714
     10  N         17.3390   34.0330   10.1890 N.am   15  SER15      -0.1935
     11  CA        18.7460   34.3420   10.4130 C.3    15  SER15       0.2055
     12  C         19.6920   33.6560    9.4250 C.2    15  SER15       0.2644
     13  O         20.9020   33.6640    9.6160 O.2    15  SER15      -0.2714
     14  CB        19.1420   33.9940   11.8460 C.3    15  SER15       0.2130
     15  OG        18.8930   32.6280   12.1340 O.3    15  SER15      -0.2179
     16  N         19.1370   33.0670    8.3700 N.am   16  GLY16      -0.1939
     17  CA        19.9600   32.4170    7.3610 C.3    16  GLY16       0.2014
     18  C         20.5050   31.0320    7.6880 C.2    16  GLY16       0.2639
     19  O         21.5100   30.6100    7.1140 O.2    16  GLY16      -0.2714
     20  N         19.8430   30.3150    8.5890 N.am   17  LYS17      -0.1963
     21  CA        20.2890   28.9740    8.9760 C.3    17  LYS17       0.1728
     22  C         20.2840   27.9470    7.8380 C.2    17  LYS17       0.2617
     23  O         21.2920   27.2810    7.5760 O.2    17  LYS17      -0.2715
     24  CB        19.4230   28.4530   10.1280 C.3    17  LYS17       0.0311
     25  CG        19.5420   29.2670   11.4070 C.3    17  LYS17       0.0038
     26  CD        18.9110   28.5490   12.5940 C.3    17  LYS17       0.0206
     27  CE        17.4260   28.3090   12.3960 C.3    17  LYS17       0.1093
     28  NZ        16.6800   29.5920   12.3150 N.3    17  LYS17      -0.1314
     29  N         19.1420   27.8190    7.1660 N.am   18  THR18      -0.1937
     30  CA        18.9900   26.8610    6.0750 C.3    18  THR18       0.2028
     31  C         19.8560   27.2340    4.8800 C.2    18  THR18       0.2642
     32  O         20.3810   26.3580    4.1980 O.2    18  THR18      -0.2714
     33  CB        17.5060   26.7560    5.6430 C.3    18  THR18       0.1808
     34  OG1       16.7480   26.1810    6.7140 O.3    18  THR18      -0.2208
     35  CG2       17.3530   25.8900    4.4020 C.3    18  THR18       0.0379
     36  N         20.0070   28.5330    4.6330 N.am   19  THR19      -0.1950
     37  CA        20.8330   29.0050    3.5290 C.3    19  THR19       0.1897
     38  C         22.2930   28.6530    3.8220 C.2    19  THR19       0.2313
     39  O         23.0540   28.3310    2.9180 O.2    19  THR19      -0.2863
     40  CB        20.6880   30.5310    3.3480 C.3    19  THR19       0.1794
     41  OG1       19.3250   30.8380    3.0320 O.3    19  THR19      -0.2208
     42  CG2       21.5750   31.0320    2.2270 C.3    19  THR19       0.0378
     43  N         15.6970   28.8590   -0.4100 N.3    37  VAL37      -0.1231
     44  CA        14.4410   28.7290    0.3070 C.3    37  VAL37       0.1692
     45  C         13.3340   29.2990   -0.5770 C.2    37  VAL37       0.2591
     46  O         12.2510   28.7190   -0.6850 O.2    37  VAL37      -0.2718
     47  CB        14.4910   29.5010    1.6380 C.3    37  VAL37       0.0266
     48  CG1       13.1150   29.5120    2.2990 C.3    37  VAL37       0.0020
     49  CG2       15.5280   28.8630    2.5530 C.3    37  VAL37       0.0020
     50  N         13.6340   30.4270   -1.2230 N.am   38  GLU38      -0.1979
     51  CA        12.6880   31.1060   -2.1070 C.3    38  GLU38       0.1602
     52  C         12.1780   30.1950   -3.2200 C.2    38  GLU38       0.2287
     53  O         11.0390   30.3210   -3.6650 O.2    38  GLU38      -0.2864
     54  CB        13.3360   32.3440   -2.7450 C.3    38  GLU38       0.0415
     55  CG        14.0740   33.2690   -1.7810 C.3    38  GLU38       0.1163
     56  CD        15.5540   32.9440   -1.6720 C.2    38  GLU38       0.3649
     57  OE1       15.8980   31.8480   -1.1810 O.co2  38  GLU38      -0.2457
     58  OE2       16.3780   33.7880   -2.0860 O.co2  38  GLU38      -0.2457
     59  N         14.3550   22.0380    4.0860 N.3    45  ASP45      -0.1239
     60  CA        12.9200   22.2820    3.9290 C.3    45  ASP45       0.1674
     61  C         12.3420   21.5350    2.7260 C.2    45  ASP45       0.2266
     62  O         12.3090   22.0570    1.6040 O.2    45  ASP45      -0.2867
     63  CB        12.6520   23.7930    3.7970 C.3    45  ASP45       0.1410
     64  CG        13.1730   24.5870    4.9880 C.2    45  ASP45       0.3668
     65  OD1       13.1710   24.0420    6.1120 O.co2  45  ASP45      -0.2456
     66  OD2       13.5680   25.7590    4.8090 O.co2  45  ASP45      -0.2456
     67  N          7.7020   29.0070    3.7740 N.3    54  ARG54      -0.1231
     68  CA         9.0720   29.4930    3.6100 C.3    54  ARG54       0.1694
     69  C          9.8300   29.5580    4.9380 C.2    54  ARG54       0.2593
     70  O         10.5350   30.5300    5.2290 O.2    54  ARG54      -0.2718
     71  CB         9.0520   30.8730    2.9380 C.3    54  ARG54       0.0321
     72  CG         9.4060   30.8710    1.4450 C.3    54  ARG54       0.0489
     73  CD         8.9810   29.5850    0.7500 C.3    54  ARG54       0.2205
     74  NE         9.0990   29.6570   -0.7060 N.pl3  54  ARG54      -0.0865
     75  CZ         9.0520   28.6010   -1.5150 C.cat  54  ARG54       0.5346
     76  NH1        8.8970   27.3810   -1.0140 N.pl3  54  ARG54       0.1354
     77  NH2        9.1460   28.7620   -2.8280 N.pl3  54  ARG54       0.1354
     78  N          9.6780   28.5100    5.7380 N.am   55  THR55      -0.1939
     79  CA        10.3460   28.4350    7.0240 C.3    55  THR55       0.2028
     80  C         10.5900   26.9730    7.3620 C.2    55  THR55       0.2642
     81  O          9.8600   26.0940    6.9020 O.2    55  THR55      -0.2714
     82  CB         9.4920   29.0930    8.1430 C.3    55  THR55       0.1808
     83  OG1       10.2580   29.1560    9.3510 O.3    55  THR55      -0.2208
     84  CG2        8.2200   28.2910    8.4080 C.3    55  THR55       0.0379
     85  N         11.6260   26.7170    8.1520 N.am   56  THR56      -0.1950
     86  CA        11.9560   25.3540    8.5580 C.3    56  THR56       0.1897
     87  C         10.9490   24.8740    9.6040 C.2    56  THR56       0.2313
     88  O         10.9780   25.2920   10.7650 O.2    56  THR56      -0.2863
     89  CB        13.4010   25.2750    9.1320 C.3    56  THR56       0.1794
     90  OG1       14.3310   25.6940    8.1270 O.3    56  THR56      -0.2208
     91  CG2       13.7500   23.8570    9.5450 C.3    56  THR56       0.0378
     92  N         17.8130   23.3030   12.6190 N.3    76  ALA76      -0.1231
     93  CA        16.5690   23.4480   13.3590 C.3    76  ALA76       0.1679
     94  C         15.7170   24.6350   12.9290 C.2    76  ALA76       0.2434
     95  O         16.2010   25.5590   12.2790 O.2    76  ALA76      -0.2733
     96  CB        16.8660   23.5500   14.8530 C.3    76  ALA76       0.0304
     97  N         14.4230   24.6090   13.2890 N.am   77  PRO77      -0.2718
     98  CA        13.4550   25.6660   12.9670 C.3    77  PRO77       0.1535
     99  C         13.7780   26.9170   13.7790 C.2    77  PRO77       0.2599
    100  O         14.5780   26.8610   14.7190 O.2    77  PRO77      -0.2715
    101  CB        12.1140   25.0550   13.3870 C.3    77  PRO77       0.0310
    102  CG        12.3560   23.5660   13.3140 C.3    77  PRO77       0.0237
    103  CD        13.7450   23.4440   13.8870 C.3    77  PRO77       0.0939
    104  N         13.1470   28.0340   13.4280 N.am   78  GLY78      -0.1941
    105  CA        13.3910   29.2750   14.1460 C.3    78  GLY78       0.2014
    106  C         12.2290   29.7470   15.0100 C.2    78  GLY78       0.2638
    107  O         12.4370   30.2790   16.1020 O.2    78  GLY78      -0.2714
    108  N         11.0020   29.5500   14.5360 N.am   79  TYR79      -0.1973
    109  CA         9.8210   29.9860   15.2830 C.3    79  TYR79       0.1639
    110  C          9.5070   29.1330   16.5050 C.2    79  TYR79       0.2290
    111  O          9.6660   27.9150   16.4800 O.2    79  TYR79      -0.2864
    112  CB         8.5920   30.0190   14.3700 C.3    79  TYR79       0.0560
    113  CG         8.6420   31.0970   13.3080 C.ar   79  TYR79      -0.0198
    114  CD1        8.8390   30.7750   11.9700 C.ar   79  TYR79      -0.0009
    115  CD2        8.5010   32.4430   13.6490 C.ar   79  TYR79      -0.0009
    116  CE1        8.8950   31.7660   10.9890 C.ar   79  TYR79       0.0417
    117  CE2        8.5550   33.4440   12.6780 C.ar   79  TYR79       0.0417
    118  CZ         8.7520   33.0970   11.3520 C.ar   79  TYR79       0.1957
    119  OH         8.8070   34.0750   10.3890 O.3    79  TYR79      -0.2866
    120  N         25.3400   36.2390   10.4320 N.3   129  THR129     -0.1203
    121  CA        24.9520   36.2000    9.0300 C.3   129  THR129      0.1994
    122  C         24.3590   37.5330    8.6110 C.2   129  THR129      0.2617
    123  O         24.1930   38.4340    9.4320 O.2   129  THR129     -0.2717
    124  CB        23.8770   35.1340    8.8010 C.3   129  THR129      0.1784
    125  OG1       22.7400   35.4550    9.6060 O.3   129  THR129     -0.2211
    126  CG2       24.3850   33.7490    9.1910 C.3   129  THR129      0.0376
    127  N         24.0510   37.6430    7.3220 N.am  130  LYS130     -0.1979
    128  CA        23.4150   38.8300    6.7600 C.3   130  LYS130      0.1596
    129  C         24.0990   40.1820    6.9500 C.2   130  LYS130      0.2287
    130  O         23.4230   41.2090    6.9770 O.2   130  LYS130     -0.2864
    131  CB        21.9860   38.9320    7.3000 C.3   130  LYS130      0.0298
    132  CG        21.0600   37.8230    6.8440 C.3   130  LYS130      0.0038
    133  CD        19.6340   38.1480    7.2160 C.3   130  LYS130      0.0206
    134  CE        18.6490   37.2450    6.5010 C.3   130  LYS130      0.1093
    135  NZ        17.2470   37.6410    6.8260 N.3   130  LYS130     -0.1314
    136  N         25.6680   41.7150    4.8740 N.3   132  ASP132     -0.1225
    137  CA        25.4870   42.4150    3.6030 C.3   132  ASP132      0.1805
    138  C         24.1590   43.1700    3.5410 C.2   132  ASP132      0.2597
    139  O         23.9740   44.0360    2.6860 O.2   132  ASP132     -0.2718
    140  CB        25.5500   41.4170    2.4520 C.3   132  ASP132      0.1424
    141  CG        24.5200   40.3130    2.5870 C.2   132  ASP132      0.3668
    142  OD1       24.5650   39.5720    3.5960 O.co2 132  ASP132     -0.2456
    143  OD2       23.6650   40.1870    1.6870 O.co2 132  ASP132     -0.2456
    144  N         23.2320   42.8320    4.4340 N.am  133  LYS133     -0.1979
    145  CA        21.9340   43.4990    4.4750 C.3   133  LYS133      0.1596
    146  C         22.0040   44.7240    5.3730 C.2   133  LYS133      0.2287
    147  O         21.0310   45.4680    5.5040 O.2   133  LYS133     -0.2864
    148  CB        20.8450   42.5560    4.9960 C.3   133  LYS133      0.0298
    149  CG        20.2250   41.6630    3.9320 C.3   133  LYS133      0.0038
    150  CD        18.9800   40.9660    4.4650 C.3   133  LYS133      0.0206
    151  CE        18.2420   40.2130    3.3690 C.3   133  LYS133      0.1093
    152  NZ        17.0220   39.5360    3.8930 N.3   133  LYS133     -0.1314
    153  N         28.0700   33.6480    5.5070 N.3   249  SER249     -0.1202
    154  CA        26.8180   33.8680    4.8020 C.3   249  SER249      0.2020
    155  C         26.7050   32.8600    3.6670 C.2   249  SER249      0.2619
    156  O         27.5960   32.7770    2.8280 O.2   249  SER249     -0.2717
    157  CB        26.7810   35.2850    4.2220 C.3   249  SER249      0.2103
    158  OG        25.7760   35.4160    3.2260 O.3   249  SER249     -0.2182
    159  N         25.6180   32.0940    3.6550 N.am  250  GLY250     -0.1942
    160  CA        25.4110   31.1310    2.5880 C.3   250  GLY250      0.2014
    161  C         24.9600   31.8670    1.3330 C.2   250  GLY250      0.2638
    162  O         25.2300   31.4370    0.2090 O.2   250  GLY250     -0.2714
    163  N         24.2840   32.9970    1.5270 N.am  251  GLU251     -0.1977
    164  CA        23.7880   33.8020    0.4120 C.3   251  GLU251      0.1602
    165  C         24.9270   34.5070   -0.3230 C.2   251  GLU251      0.2287
    166  O         24.9840   34.4730   -1.5520 O.2   251  GLU251     -0.2864
    167  CB        22.7840   34.8390    0.9180 C.3   251  GLU251      0.0415
    168  CG        21.7630   35.2720   -0.1170 C.3   251  GLU251      0.1163
    169  CD        20.8210   34.1430   -0.4970 C.2   251  GLU251      0.3649
    170  OE1       20.1180   33.6270    0.3990 O.co2 251  GLU251     -0.2457
    171  OE2       20.7840   33.7690   -1.6890 O.co2 251  GLU251     -0.2457
@<TRIPOS>BOND
     1    53    52    2
     2    52    51    1
     3    77    75    1
     4    54    51    1
     5    54    55    1
     6    51    50    1
     7    58    56   ar
     8    55    56    1
     9   171   169   ar
    10    56    57   ar
    11   166   165    2
    12    75    76    1
    13    75    74    2
    14    50    45   am
    15    74    73    1
    16    46    45    2
    17    45    44    1
    18   169   168    1
    19   169   170   ar
    20    43    44    1
    21   165   164    1
    22   168   167    1
    23   162   161    2
    24    44    47    1
    25   164   167    1
    26   164   163    1
    27    73    72    1
    28   161   163   am
    29   161   160    1
    30    72    71    1
    31    62    61    2
    32    47    48    1
    33    47    49    1
    34   143   141   ar
    35    42    40    1
    36   140   141    1
    37   140   137    1
    38   141   142   ar
    39   160   159    1
    40   139   138    2
    41    61    60    1
    42   156   155    2
    43    39    38    2
    44    71    68    1
    45    41    40    1
    46   158   157    1
    47    40    37    1
    48   151   152    1
    49   151   150    1
    50    37    38    1
    51    37    36    1
    52   138   137    1
    53   138   144   am
    54   137   136    1
    55    68    67    1
    56    68    69    1
    57   159   155   am
    58   155   154    1
    59    63    60    1
    60    63    64    1
    61    60    59    1
    62   149   150    1
    63   149   148    1
    64    32    31    2
    65   157   154    1
    66    35    33    1
    67   144   145    1
    68   145   148    1
    69   145   146    1
    70    36    31   am
    71   154   153    1
    72    66    64   ar
    73    31    30    1
    74    69    70    2
    75    69    78   am
    76    64    65   ar
    77   146   147    2
    78    33    30    1
    79    33    34    1
    80    78    79    1
    81    30    29    1
    82   134   135    1
    83   134   133    1
    84   128   129    1
    85   128   131    1
    86   128   127    1
    87   132   133    1
    88   132   131    1
    89    81    80    2
    90   129   130    2
    91    79    80    1
    92    79    82    1
    93    19    18    2
    94    29    22   am
    95   127   122   am
    96    17    18    1
    97    17    16    1
    98    80    85   am
    99    23    22    2
   100    18    20   am
   101    22    21    1
   102    90    89    1
   103    82    84    1
   104    82    83    1
   105    85    86    1
   106    16    12   am
   107    86    89    1
   108    86    87    1
   109     9     8    2
   110    20    21    1
   111   122   121    1
   112   122   123    2
   113   124   121    1
   114   124   126    1
   115   124   125    1
   116    21    24    1
   117   121   120    1
   118     7     8    1
   119     7     6    1
   120    89    91    1
   121     8    10   am
   122    12    13    2
   123    12    11    1
   124    87    88    2
   125     6     3   am
   126    24    25    1
   127    10    11    1
   128   119   118    1
   129    11    14    1
   130   116   118   ar
   131   116   114   ar
   132     3     4    2
   133     3     2    1
   134   118   117   ar
   135    25    26    1
   136    14    15    1
   137   114   113   ar
   138     5     2    1
   139     2     1    1
   140    95    94    2
   141    28    27    1
   142    27    26    1
   143    92    93    1
   144   117   115   ar
   145    94    97   am
   146    94    93    1
   147    98    97    1
   148    98   101    1
   149    98    99    1
   150    97   103    1
   151   113   115   ar
   152   113   112    1
   153   102   101    1
   154   102   103    1
   155    93    96    1
   156   104    99   am
   157   104   105    1
   158    99   100    2
   159   105   106    1
   160   112   109    1
   161   108   106   am
   162   108   109    1
   163   106   107    2
   164   109   110    1
   165   111   110    2
