@<TRIPOS>MOLECULE
tmp/1wdwH00.pdb
 120 111 0 0 0
SMALL
GASTEIGER

@<TRIPOS>ATOM
      1  N          8.2050  166.7900  208.0290 N.3    80  ALA80      -0.1231
      2  CA         8.3960  166.5940  209.4630 C.3    80  ALA80       0.1694
      3  C          7.6430  165.3820  209.9890 C.2    80  ALA80       0.2592
      4  O          6.6210  164.9730  209.4380 O.2    80  ALA80      -0.2718
      5  CB         7.9620  167.8260  210.2170 C.3    80  ALA80       0.0304
      6  N          8.1530  164.8140  211.0730 N.am   81  HIS81      -0.1962
      7  CA         7.5310  163.6480  211.6780 C.3    81  HIS81       0.1787
      8  C          6.0790  163.9190  212.0780 C.2    81  HIS81       0.2620
      9  O          5.2910  162.9880  212.2230 O.2    81  HIS81      -0.2715
     10  CB         8.3090  163.2400  212.9230 C.3    81  HIS81       0.0785
     11  CG         8.1880  164.2230  214.0400 C.ar   81  HIS81       0.0821
     12  ND1        8.6390  165.5210  213.9350 N.ar   81  HIS81      -0.2267
     13  CD2        7.6460  164.1100  215.2740 C.ar   81  HIS81       0.1154
     14  CE1        8.3790  166.1650  215.0580 C.ar   81  HIS81       0.1986
     15  NE2        7.7780  165.3320  215.8860 N.ar   81  HIS81      -0.2212
     16  N          5.7290  165.1860  212.2770 N.am   82  LYS82      -0.1977
     17  CA         4.3720  165.5340  212.6840 C.3    82  LYS82       0.1596
     18  C          3.3080  164.8570  211.8210 C.2    82  LYS82       0.2287
     19  O          2.2300  164.5180  212.3050 O.2    82  LYS82      -0.2864
     20  CB         4.1910  167.0530  212.6630 C.3    82  LYS82       0.0298
     21  CG         4.8310  167.7470  213.8540 C.3    82  LYS82       0.0038
     22  CD         4.5990  169.2430  213.8140 C.3    82  LYS82       0.0206
     23  CE         5.0710  169.9330  215.0900 C.3    82  LYS82       0.1093
     24  NZ         6.5480  169.8610  215.3200 N.3    82  LYS82      -0.1314
     25  N          3.2120  174.7520  211.8530 N.3   109  GLN109     -0.1245
     26  CA         3.5920  173.4020  211.4590 C.3   109  GLN109      0.1566
     27  C          2.5070  172.3890  211.7430 C.2   109  GLN109      0.2260
     28  O          2.1310  171.6170  210.8550 O.2   109  GLN109     -0.2867
     29  CB         4.8660  172.9840  212.1630 C.3   109  GLN109      0.0367
     30  CG         6.1190  173.4290  211.4600 C.3   109  GLN109      0.0905
     31  CD         7.2820  173.5680  212.4330 C.2   109  GLN109      0.2608
     32  OE1        7.5870  172.6440  213.1900 O.2   109  GLN109     -0.2717
     33  NE2        7.9320  174.7290  212.4230 N.am  109  GLN109     -0.0878
     34  N         -1.0540  167.8990  218.7890 N.3   184  GLY184     -0.1210
     35  CA         0.1850  167.7200  218.0530 C.3   184  GLY184      0.1956
     36  C          1.3880  167.0370  218.6700 C.2   184  GLY184      0.2612
     37  O          2.3260  166.7260  217.9410 O.2   184  GLY184     -0.2717
     38  N          1.3870  166.8020  219.9800 N.am  185  SER185     -0.1952
     39  CA         2.5290  166.1560  220.6160 C.3   185  SER185      0.1924
     40  C          2.0990  165.2610  221.7670 C.2   185  SER185      0.2314
     41  O          0.9270  165.2420  222.1420 O.2   185  SER185     -0.2863
     42  CB         3.5140  167.2160  221.1210 C.3   185  SER185      0.2116
     43  OG         4.6560  166.6300  221.7210 O.3   185  SER185     -0.2180
     44  N         15.7700  165.6790  219.6080 N.3   225  CYS225     -0.1235
     45  CA        15.4190  166.9310  220.2690 C.3   225  CYS225      0.1677
     46  C         14.0770  166.7800  220.9630 C.2   225  CYS225      0.2270
     47  O         13.2500  165.9870  220.5470 O.2   225  CYS225     -0.2867
     48  CB        15.3500  168.0750  219.2590 C.3   225  CYS225      0.0956
     49  SG        14.0780  167.9110  218.0030 S.3   225  CYS225     -0.0801
     50  N         10.7160  168.9010  222.4240 N.3   227  GLY227     -0.1210
     51  CA         9.9000  170.0900  222.5940 C.3   227  GLY227      0.1956
     52  C          8.8120  169.5520  223.5020 C.2   227  GLY227      0.2612
     53  O          8.8990  169.6510  224.7310 O.2   227  GLY227     -0.2717
     54  N          7.7880  168.9650  222.8880 N.am  228  GLY228     -0.1942
     55  CA         6.7330  168.3340  223.6560 C.3   228  GLY228      0.2014
     56  C          7.2650  166.9310  223.9020 C.2   228  GLY228      0.2639
     57  O          6.9660  166.3000  224.9200 O.2   228  GLY228     -0.2714
     58  N          8.0600  166.4550  222.9420 N.am  229  GLY229     -0.1939
     59  CA         8.6860  165.1550  223.0420 C.3   229  GLY229      0.2014
     60  C          8.1460  164.0440  222.1720 C.2   229  GLY229      0.2640
     61  O          8.4360  162.8810  222.4270 O.2   229  GLY229     -0.2714
     62  N          7.3920  164.3710  221.1320 N.am  230  SER230     -0.1935
     63  CA         6.8250  163.3130  220.3030 C.3   230  SER230      0.2055
     64  C          7.7830  162.6190  219.3320 C.2   230  SER230      0.2643
     65  O          7.6700  161.4160  219.1230 O.2   230  SER230     -0.2714
     66  CB         5.5820  163.8160  219.5430 C.3   230  SER230      0.2130
     67  OG         5.9190  164.6910  218.4960 O.3   230  SER230     -0.2179
     68  N          8.7230  163.3360  218.7340 N.am  231  ASN231     -0.1971
     69  CA         9.6330  162.6680  217.8050 C.3   231  ASN231      0.1688
     70  C         10.6540  161.8720  218.6120 C.2   231  ASN231      0.2292
     71  O         11.0950  160.8050  218.2030 O.2   231  ASN231     -0.2864
     72  CB        10.3250  163.6850  216.8750 C.3   231  ASN231      0.1181
     73  CG        11.5250  164.3470  217.5080 C.2   231  ASN231      0.2629
     74  OD1       12.6450  163.8770  217.3600 O.2   231  ASN231     -0.2716
     75  ND2       11.2950  165.4410  218.2220 N.am  231  ASN231     -0.0877
     76  N          9.4110  174.9610  217.3260 N.3   298  GLY298     -0.1210
     77  CA         8.9330  173.7160  217.8940 C.3   298  GLY298      0.1956
     78  C          9.4930  173.3200  219.2490 C.2   298  GLY298      0.2611
     79  O          8.9910  172.3920  219.8660 O.2   298  GLY298     -0.2717
     80  N         10.5190  174.0100  219.7240 N.am  299  LEU299     -0.1979
     81  CA        11.1150  173.6770  221.0110 C.3   299  LEU299      0.1596
     82  C         10.7060  174.6460  222.1030 C.2   299  LEU299      0.2287
     83  O         10.9760  174.4160  223.2850 O.2   299  LEU299     -0.2864
     84  CB        12.6360  173.6660  220.8750 C.3   299  LEU299      0.0297
     85  CG        13.3270  172.3150  220.6810 C.3   299  LEU299      0.0022
     86  CD1       12.5100  171.3100  219.8600 C.3   299  LEU299      0.0001
     87  CD2       14.6290  172.6100  220.0050 C.3   299  LEU299      0.0001
     88  N         15.8970  171.1400  210.1930 N.3   343  ALA343     -0.1245
     89  CA        15.0180  172.0840  210.8670 C.3   343  ALA343      0.1562
     90  C         15.7830  172.5310  212.1220 C.2   343  ALA343      0.2260
     91  O         16.5990  171.7750  212.6410 O.2   343  ALA343     -0.2867
     92  CB        13.7200  171.4100  211.2470 C.3   343  ALA343      0.0290
     93  N         14.8600  172.7230  215.0660 N.3   345  GLU345     -0.1245
     94  CA        14.5690  171.8200  216.1650 C.3   345  GLU345      0.1567
     95  C         15.5630  170.6750  216.0820 C.2   345  GLU345      0.2260
     96  O         16.2720  170.3870  217.0420 O.2   345  GLU345     -0.2867
     97  CB        13.1370  171.2770  216.0710 C.3   345  GLU345      0.0388
     98  CG        12.0360  172.2960  216.3290 C.3   345  GLU345      0.1160
     99  CD        11.7370  173.1560  215.1190 C.2   345  GLU345      0.3649
    100  OE1       10.9780  174.1430  215.2600 O.co2 345  GLU345     -0.2457
    101  OE2       12.2570  172.8400  214.0240 O.co2 345  GLU345     -0.2457
    102  N         14.2310  165.0700  212.7300 N.3   371  SER371     -0.1202
    103  CA        12.7800  165.2800  212.6990 C.3   371  SER371      0.2023
    104  C         12.1570  166.0770  211.5470 C.2   371  SER371      0.2658
    105  O         10.9620  165.9200  211.2710 O.2   371  SER371     -0.2713
    106  CB        12.3240  165.8850  214.0240 C.3   371  SER371      0.2104
    107  OG        13.1580  166.9660  214.3940 O.3   371  SER371     -0.2182
    108  N         12.9300  166.9290  210.8800 N.am  372  GLY372     -0.1731
    109  CA        12.3590  167.6740  209.7730 C.2   372  GLY372      0.1340
    110  C         13.3420  168.4690  208.9440 C.2   372  GLY372      0.2521
    111  O         14.4820  168.6630  209.3380 O.2   372  GLY372     -0.2816
    112  N         11.6030  175.5770  206.1920 N.3   376  LYS376     -0.1245
    113  CA        10.7930  176.4620  207.0100 C.3   376  LYS376      0.1561
    114  C         11.5810  177.5030  207.8130 C.2   376  LYS376      0.2260
    115  O         11.0390  178.5450  208.1690 O.2   376  LYS376     -0.2867
    116  CB         9.9530  175.6160  207.9820 C.3   376  LYS376      0.0271
    117  CG        10.7370  175.0380  209.1480 C.3   376  LYS376      0.0035
    118  CD         9.9130  174.1190  209.9910 C.3   376  LYS376      0.0206
    119  CE        10.7060  173.5820  211.1750 C.3   376  LYS376      0.1093
    120  NZ        10.9510  174.6360  212.1870 N.3   376  LYS376     -0.1314
@<TRIPOS>BOND
     1   112   113    1
     2   113   114    1
     3   113   116    1
     4   114   115    2
     5   116   117    1
     6     1     2    1
     7   110   111    2
     8   110   109    1
     9   117   118    1
    10     4     3    2
    11     2     3    1
    12     2     5    1
    13   109   108    2
    14     3     6   am
    15   118   119    1
    16    88    89    1
    17    28    27    2
    18    89    92    1
    19    89    90    1
    20   108   104    1
    21     6     7    1
    22   119   120    1
    23   105   104    2
    24    26    27    1
    25    26    25    1
    26    26    29    1
    27    30    29    1
    28    30    31    1
    29   104   103    1
    30     7     8    1
    31     7    10    1
    32    18    19    2
    33    18    17    1
    34     8     9    2
    35     8    16   am
    36    90    91    2
    37    16    17    1
    38    33    31   am
    39    31    32    2
    40    20    17    1
    41    20    21    1
    42   103   102    1
    43   103   106    1
    44    10    11    1
    45    22    21    1
    46    22    23    1
    47    12    11   ar
    48    12    14   ar
    49   106   107    1
    50   101    99   ar
    51    11    13   ar
    52    14    15   ar
    53    93    94    1
    54    23    24    1
    55    99   100   ar
    56    99    98    1
    57    13    15   ar
    58    97    94    1
    59    97    98    1
    60    95    94    1
    61    95    96    2
    62    72    73    1
    63    72    69    1
    64    76    77    1
    65    74    73    2
    66    73    75   am
    67    69    70    1
    68    69    68    1
    69    77    78    1
    70    37    36    2
    71    49    48    1
    72    35    36    1
    73    35    34    1
    74    71    70    2
    75    67    66    1
    76    36    38   am
    77    68    64   am
    78    65    64    2
    79    78    80   am
    80    78    79    2
    81    48    45    1
    82    64    63    1
    83    66    63    1
    84    44    45    1
    85    80    81    1
    86    86    85    1
    87    38    39    1
    88    87    85    1
    89    45    46    1
    90    63    62    1
    91    47    46    2
    92    39    42    1
    93    39    40    1
    94    85    84    1
    95    84    81    1
    96    81    82    1
    97    42    43    1
    98    62    60   am
    99    40    41    2
   100    82    83    2
   101    60    61    2
   102    60    59    1
   103    50    51    1
   104    51    52    1
   105    54    52   am
   106    54    55    1
   107    58    59    1
   108    58    56   am
   109    52    53    2
   110    55    56    1
   111    56    57    2
