@<TRIPOS>MOLECULE
tmp/1we1A00.pdb
 199 188 0 0 0
SMALL
GASTEIGER

@<TRIPOS>ATOM
      1  N         31.6380   -3.0820   40.8150 N.3     5  ALA5       -0.1245
      2  CA        31.7060   -1.9290   39.9250 C.3     5  ALA5        0.1562
      3  C         32.8400   -2.0560   38.9080 C.2     5  ALA5        0.2260
      4  O         32.6480   -1.8220   37.7120 O.2     5  ALA5       -0.2867
      5  CB        31.8730   -0.6520   40.7350 C.3     5  ALA5        0.0290
      6  N         32.7370   -3.3970   34.8780 N.3     9  ARG9       -0.1245
      7  CA        33.4000   -2.5640   33.8890 C.3     9  ARG9        0.1563
      8  C         34.4770   -3.3110   33.1110 C.2     9  ARG9        0.2260
      9  O         34.5050   -3.2710   31.8850 O.2     9  ARG9       -0.2867
     10  CB        34.0050   -1.3120   34.5370 C.3     9  ARG9        0.0307
     11  CG        34.6850   -0.3830   33.5210 C.3     9  ARG9        0.0489
     12  CD        35.1850    0.9110   34.1420 C.3     9  ARG9        0.2205
     13  NE        36.0250    1.6700   33.2130 N.pl3   9  ARG9       -0.0865
     14  CZ        35.5720    2.3600   32.1680 C.cat   9  ARG9        0.5346
     15  NH1       34.2720    2.4020   31.9030 N.pl3   9  ARG9        0.1354
     16  NH2       36.4200    3.0160   31.3820 N.pl3   9  ARG9        0.1354
     17  N         32.8840   -6.4170   30.9640 N.3    12  THR12      -0.1218
     18  CA        32.0720   -6.2080   29.7690 C.3    12  THR12       0.1862
     19  C         32.8460   -5.4170   28.7190 C.2    12  THR12       0.2287
     20  O         32.2740   -4.9430   27.7410 O.2    12  THR12      -0.2866
     21  CB        30.7570   -5.4540   30.0940 C.3    12  THR12       0.1770
     22  OG1       31.0490   -4.2160   30.7530 O.3    12  THR12      -0.2211
     23  CG2       29.8770   -6.2870   30.9870 C.3    12  THR12       0.0375
     24  N         31.0890   -4.6360   24.9960 N.3    16  HIS16      -0.1241
     25  CA        30.7880   -3.2650   24.6040 C.3    16  HIS16       0.1621
     26  C         31.4720   -2.9580   23.2800 C.2    16  HIS16       0.2264
     27  O         30.9380   -2.2320   22.4390 O.2    16  HIS16      -0.2867
     28  CB        31.2670   -2.2900   25.6740 C.3    16  HIS16       0.0745
     29  CG        30.7440   -0.8990   25.5020 C.ar   16  HIS16       0.0817
     30  ND1       31.2210   -0.0370   24.5380 N.ar   16  HIS16      -0.2268
     31  CD2       29.8140   -0.2050   26.2020 C.ar   16  HIS16       0.1154
     32  CE1       30.6150    1.1310   24.6610 C.ar   16  HIS16       0.1986
     33  NE2       29.7580    1.0560   25.6640 N.ar   16  HIS16      -0.2212
     34  N         29.5320   -4.4290   20.5350 N.3    19  ALA19      -0.1231
     35  CA        28.3300   -3.6250   20.3810 C.3    19  ALA19       0.1694
     36  C         28.5800   -2.4770   19.3950 C.2    19  ALA19       0.2591
     37  O         27.7940   -2.2410   18.4770 O.2    19  ALA19      -0.2718
     38  CB        27.9120   -3.0750   21.7350 C.3    19  ALA19       0.0304
     39  N         29.6920   -1.7770   19.5860 N.am   20  GLU20      -0.1979
     40  CA        30.0460   -0.6530   18.7340 C.3    20  GLU20       0.1602
     41  C         30.2920   -1.0690   17.2880 C.2    20  GLU20       0.2287
     42  O         30.1700   -0.2540   16.3790 O.2    20  GLU20      -0.2864
     43  CB        31.3080    0.0310   19.2620 C.3    20  GLU20       0.0415
     44  CG        31.2020    0.6540   20.6420 C.3    20  GLU20       0.1163
     45  CD        32.5780    0.8930   21.2470 C.2    20  GLU20       0.3649
     46  OE1       33.4330    1.5020   20.5650 O.co2  20  GLU20      -0.2457
     47  OE2       32.8120    0.4660   22.4020 O.co2  20  GLU20      -0.2457
     48  N         24.8790   -0.2730   14.2740 N.3    25  VAL25      -0.1245
     49  CA        25.5570    0.7040   15.1310 C.3    25  VAL25       0.1561
     50  C         26.6280    1.4840   14.3930 C.2    25  VAL25       0.2260
     51  O         26.7150    2.7060   14.5330 O.2    25  VAL25      -0.2867
     52  CB        26.1780    0.0290   16.3780 C.3    25  VAL25       0.0252
     53  CG1       27.1670    0.9810   17.0750 C.3    25  VAL25       0.0019
     54  CG2       25.0610   -0.3550   17.3420 C.3    25  VAL25       0.0019
     55  N         24.9880    4.0800   12.5140 N.3    28  PHE28      -0.1227
     56  CA        24.4580    5.0790   13.4440 C.3    28  PHE28       0.1736
     57  C         25.5490    6.0760   13.8500 C.2    28  PHE28       0.2595
     58  O         25.3440    7.2850   13.8550 O.2    28  PHE28      -0.2718
     59  CB        23.9390    4.3840   14.7060 C.3    28  PHE28       0.0547
     60  CG        23.3250    5.3170   15.7010 C.ar   28  PHE28      -0.0202
     61  CD1       21.9510    5.4610   15.7730 C.ar   28  PHE28      -0.0042
     62  CD2       24.1230    6.0540   16.5640 C.ar   28  PHE28      -0.0042
     63  CE1       21.3750    6.3240   16.6910 C.ar   28  PHE28      -0.0003
     64  CE2       23.5640    6.9170   17.4820 C.ar   28  PHE28      -0.0003
     65  CZ        22.1840    7.0550   17.5500 C.ar   28  PHE28      -0.0000
     66  N         26.7100    5.5450   14.2040 N.am   29  LEU29      -0.1980
     67  CA        27.8240    6.3680   14.6220 C.3    29  LEU29       0.1596
     68  C         28.2700    7.3080   13.5180 C.2    29  LEU29       0.2287
     69  O         28.4930    8.4880   13.7690 O.2    29  LEU29      -0.2864
     70  CB        28.9750    5.4760   15.0890 C.3    29  LEU29       0.0297
     71  CG        29.1660    5.3770   16.6130 C.3    29  LEU29       0.0022
     72  CD1       27.9300    5.8540   17.3530 C.3    29  LEU29       0.0001
     73  CD2       29.5050    3.9360   16.9850 C.3    29  LEU29       0.0001
     74  N         22.6610   -2.3950   35.4830 N.3   124  TYR124     -0.1227
     75  CA        23.9730   -1.9200   35.1050 C.3   124  TYR124      0.1736
     76  C         24.0350   -1.7260   33.6020 C.2   124  TYR124      0.2596
     77  O         24.2810   -0.6160   33.1350 O.2   124  TYR124     -0.2718
     78  CB        25.0700   -2.9030   35.5570 C.3   124  TYR124      0.0548
     79  CG        26.4310   -2.6270   34.9340 C.ar  124  TYR124     -0.0200
     80  CD1       27.1780   -1.4960   35.2900 C.ar  124  TYR124     -0.0009
     81  CD2       26.9340   -3.4580   33.9280 C.ar  124  TYR124     -0.0009
     82  CE1       28.3890   -1.2000   34.6500 C.ar  124  TYR124      0.0417
     83  CE2       28.1350   -3.1720   33.2840 C.ar  124  TYR124      0.0417
     84  CZ        28.8500   -2.0460   33.6460 C.ar  124  TYR124      0.1957
     85  OH        30.0130   -1.7620   32.9780 O.3   124  TYR124     -0.2866
     86  N         23.7960   -2.7940   32.8470 N.am  125  THR125     -0.1939
     87  CA        23.8650   -2.7310   31.3870 C.3   125  THR125      0.2028
     88  C         23.0800   -1.5970   30.7240 C.2   125  THR125      0.2642
     89  O         23.5740   -0.9770   29.7990 O.2   125  THR125     -0.2714
     90  CB        23.4510   -4.0680   30.7620 C.3   125  THR125      0.1808
     91  OG1       24.3390   -5.0920   31.2270 O.3   125  THR125     -0.2208
     92  CG2       23.5470   -4.0010   29.2510 C.3   125  THR125      0.0379
     93  N         21.8740   -1.3080   31.2000 N.am  126  ARG126     -0.1977
     94  CA        21.0960   -0.2210   30.6070 C.3   126  ARG126      0.1597
     95  C         21.3870    1.1470   31.2350 C.2   126  ARG126      0.2287
     96  O         22.0180    2.0070   30.6150 O.2   126  ARG126     -0.2864
     97  CB        19.5910   -0.5220   30.6890 C.3   126  ARG126      0.0334
     98  CG        19.0960   -1.5940   29.7020 C.3   126  ARG126      0.0492
     99  CD        19.7040   -1.4240   28.3020 C.3   126  ARG126      0.2205
    100  NE        19.5510   -0.0640   27.7820 N.pl3 126  ARG126     -0.0865
    101  CZ        19.9550    0.3410   26.5780 C.cat 126  ARG126      0.5346
    102  NH1       20.5490   -0.5020   25.7430 N.pl3 126  ARG126      0.1354
    103  NH2       19.7530    1.5970   26.1990 N.pl3 126  ARG126      0.1354
    104  N         23.5690    2.3920   33.5860 N.3   128  LEU128     -0.1231
    105  CA        24.9150    2.9700   33.6400 C.3   128  LEU128      0.1693
    106  C         25.4370    3.2820   32.2440 C.2   128  LEU128      0.2592
    107  O         26.3090    4.1290   32.0710 O.2   128  LEU128     -0.2718
    108  CB        25.9020    2.0640   34.4070 C.3   128  LEU128      0.0284
    109  CG        27.2510    2.7230   34.7800 C.3   128  LEU128      0.0019
    110  CD1       27.0170    4.1450   35.2790 C.3   128  LEU128      0.0001
    111  CD2       27.9850    1.9040   35.8520 C.3   128  LEU128      0.0001
    112  N         24.8910    2.6000   31.2440 N.am  129  GLY129     -0.1957
    113  CA        25.2970    2.8650   29.8740 C.3   129  GLY129      0.1869
    114  C         24.5740    4.0950   29.3500 C.2   129  GLY129      0.2309
    115  O         25.1670    4.9270   28.6610 O.2   129  GLY129     -0.2863
    116  N         26.2500    7.0750   30.7720 N.3   132  SER132     -0.1202
    117  CA        27.5670    7.3940   30.2310 C.3   132  SER132      0.2020
    118  C         27.6240    7.7680   28.7540 C.2   132  SER132      0.2619
    119  O         28.4450    8.6050   28.3570 O.2   132  SER132     -0.2717
    120  CB        28.5120    6.2220   30.4710 C.3   132  SER132      0.2103
    121  OG        28.4890    5.8280   31.8270 O.3   132  SER132     -0.2182
    122  N         26.7750    7.1340   27.9440 N.am  133  GLY133     -0.1956
    123  CA        26.7650    7.4170   26.5150 C.3   133  GLY133      0.1869
    124  C         25.6420    8.3410   26.0760 C.2   133  GLY133      0.2309
    125  O         25.6660    8.8880   24.9770 O.2   133  GLY133     -0.2863
    126  N         26.4740   11.5380   23.9280 N.3   136  ILE136     -0.1231
    127  CA        27.0240   11.3170   22.6010 C.3   136  ILE136      0.1692
    128  C         25.9360   10.8540   21.6440 C.2   136  ILE136      0.2591
    129  O         25.7600   11.4240   20.5680 O.2   136  ILE136     -0.2718
    130  CB        28.1330   10.2540   22.6130 C.3   136  ILE136      0.0266
    131  CG1       29.2900   10.7210   23.5000 C.3   136  ILE136      0.0019
    132  CG2       28.6130   10.0020   21.1940 C.3   136  ILE136      0.0020
    133  CD1       30.4660    9.7620   23.5570 C.3   136  ILE136      0.0001
    134  N         25.2070    9.8200   22.0550 N.am  137  LEU137     -0.1980
    135  CA        24.1290    9.2500   21.2470 C.3   137  LEU137      0.1596
    136  C         23.0430   10.2670   20.8830 C.2   137  LEU137      0.2287
    137  O         22.4850   10.2330   19.7790 O.2   137  LEU137     -0.2864
    138  CB        23.5030    8.0620   21.9930 C.3   137  LEU137      0.0297
    139  CG        24.5080    6.9450   22.2940 C.3   137  LEU137      0.0022
    140  CD1       23.9070    5.9380   23.2700 C.3   137  LEU137      0.0001
    141  CD2       24.9290    6.2780   20.9820 C.3   137  LEU137      0.0001
    142  N         26.6570    9.1230   38.8320 N.3   167  LYS167     -0.1245
    143  CA        27.3720    7.9680   38.3170 C.3   167  LYS167      0.1561
    144  C         28.2860    7.3810   39.3990 C.2   167  LYS167      0.2260
    145  O         28.5970    6.1950   39.3830 O.2   167  LYS167     -0.2867
    146  CB        28.1680    8.3610   37.0640 C.3   167  LYS167      0.0271
    147  CG        28.5990    7.1860   36.1930 C.3   167  LYS167      0.0035
    148  CD        29.3360    7.6450   34.9250 C.3   167  LYS167      0.0206
    149  CE        30.0200    6.4640   34.2260 C.3   167  LYS167      0.1093
    150  NZ        30.8450    6.8460   33.0340 N.3   167  LYS167     -0.1314
    151  N         28.0060    3.6640   41.1880 N.3   171  ARG171     -0.1245
    152  CA        29.1070    2.6940   41.2000 C.3   171  ARG171      0.1563
    153  C         29.3550    2.3030   42.6530 C.2   171  ARG171      0.2260
    154  O         29.5550    1.1330   42.9820 O.2   171  ARG171     -0.2867
    155  CB        30.3880    3.3130   40.6500 C.3   171  ARG171      0.0307
    156  CG        30.3850    3.6460   39.1800 C.3   171  ARG171      0.0489
    157  CD        31.5440    4.5800   38.8980 C.3   171  ARG171      0.2205
    158  NE        31.7570    4.8380   37.4800 N.pl3 171  ARG171     -0.0865
    159  CZ        32.0640    3.9020   36.5860 C.cat 171  ARG171      0.5346
    160  NH1       32.2440    4.2460   35.3150 N.pl3 171  ARG171      0.1354
    161  NH2       32.1780    2.6260   36.9570 N.pl3 171  ARG171      0.1354
    162  N         24.0970   -7.6240   27.0940 N.3   195  PHE195     -0.1241
    163  CA        24.7090   -6.9590   25.9580 C.3   195  PHE195      0.1605
    164  C         24.3200   -7.6900   24.6760 C.2   195  PHE195      0.2264
    165  O         23.9210   -7.0680   23.6920 O.2   195  PHE195     -0.2867
    166  CB        26.2360   -6.9540   26.0650 C.3   195  PHE195      0.0534
    167  CG        26.8010   -5.7150   26.6760 C.ar  195  PHE195     -0.0203
    168  CD1       26.7850   -5.5270   28.0560 C.ar  195  PHE195     -0.0042
    169  CD2       27.3750   -4.7340   25.8770 C.ar  195  PHE195     -0.0042
    170  CE1       27.3350   -4.3810   28.6240 C.ar  195  PHE195     -0.0003
    171  CE2       27.9250   -3.5840   26.4400 C.ar  195  PHE195     -0.0003
    172  CZ        27.9030   -3.4120   27.8160 C.ar  195  PHE195     -0.0000
    173  N         20.9250   -6.8780   23.4860 N.3   198  ASN198     -0.1225
    174  CA        20.7780   -5.5600   22.8980 C.3   198  ASN198      0.1785
    175  C         21.2710   -5.6810   21.4690 C.2   198  ASN198      0.2597
    176  O         20.6430   -5.1990   20.5290 O.2   198  ASN198     -0.2718
    177  CB        21.6250   -4.5420   23.6630 C.3   198  ASN198      0.1169
    178  CG        20.9500   -4.0690   24.9160 C.2   198  ASN198      0.2627
    179  OD1       20.0920   -3.2020   24.8680 O.2   198  ASN198     -0.2716
    180  ND2       21.3090   -4.6540   26.0450 N.am  198  ASN198     -0.0877
    181  N         22.4010   -6.3550   21.3190 N.am  199  MET199     -0.1979
    182  CA        22.9980   -6.5430   20.0200 C.3   199  MET199      0.1605
    183  C         22.0720   -7.2850   19.0660 C.2   199  MET199      0.2287
    184  O         22.0730   -7.0140   17.8660 O.2   199  MET199     -0.2864
    185  CB        24.3250   -7.2790   20.1650 C.3   199  MET199      0.0413
    186  CG        25.3850   -6.4730   20.8870 C.3   199  MET199      0.0598
    187  SD        27.0550   -7.0700   20.5680 S.3   199  MET199     -0.1393
    188  CE        27.3230   -8.1460   22.0060 C.3   199  MET199      0.0692
    189  N         19.5730   -4.8770   17.5520 N.3   202  PHE202     -0.1241
    190  CA        20.2100   -4.0540   16.5250 C.3   202  PHE202      0.1605
    191  C         20.3090   -4.8050   15.2050 C.2   202  PHE202      0.2264
    192  O         20.0050   -4.2590   14.1400 O.2   202  PHE202     -0.2867
    193  CB        21.6240   -3.6400   16.9320 C.3   202  PHE202      0.0534
    194  CG        21.6970   -2.8150   18.1830 C.ar  202  PHE202     -0.0203
    195  CD1       20.6280   -2.0230   18.5890 C.ar  202  PHE202     -0.0042
    196  CD2       22.8770   -2.7870   18.9310 C.ar  202  PHE202     -0.0042
    197  CE1       20.7320   -1.2080   19.7260 C.ar  202  PHE202     -0.0003
    198  CE2       23.0010   -1.9780   20.0720 C.ar  202  PHE202     -0.0003
    199  CZ        21.9290   -1.1850   20.4730 C.ar  202  PHE202     -0.0000
@<TRIPOS>BOND
     1    55    56    1
     2    56    57    1
     3    56    59    1
     4    68    69    2
     5    68    67    1
     6    57    58    2
     7    57    66   am
     8   192   191    2
     9    66    67    1
    10    48    49    1
    11    50    51    2
    12    50    49    1
    13    67    70    1
    14    59    60    1
    15    70    71    1
    16    49    52    1
    17   191   190    1
    18    60    61   ar
    19    60    62   ar
    20    61    63   ar
    21    52    53    1
    22    52    54    1
    23    42    41    2
    24   190   193    1
    25   190   189    1
    26    62    64   ar
    27    71    73    1
    28    71    72    1
    29    63    65   ar
    30   193   194    1
    31    41    40    1
    32    64    65   ar
    33   184   183    2
    34   194   195   ar
    35   194   196   ar
    36    37    36    2
    37   195   197   ar
    38    40    43    1
    39    40    39    1
    40   196   198   ar
    41   183   182    1
    42    43    44    1
    43    36    39   am
    44    36    35    1
    45   197   199   ar
    46   137   136    2
    47   182   185    1
    48   182   181    1
    49   198   199   ar
    50   185   186    1
    51    35    34    1
    52    35    38    1
    53   176   175    2
    54    46    45   ar
    55   129   128    2
    56   187   186    1
    57   187   188    1
    58    44    45    1
    59   136   135    1
    60   141   139    1
    61   132   130    1
    62    45    47   ar
    63   135   138    1
    64   135   134    1
    65   181   175   am
    66   175   174    1
    67   128   134   am
    68   128   127    1
    69   138   139    1
    70   139   140    1
    71    27    26    2
    72   127   130    1
    73   127   126    1
    74   130   131    1
    75   174   173    1
    76   174   177    1
    77    26    25    1
    78   131   133    1
    79   177   178    1
    80   165   164    2
    81    30    32   ar
    82    30    29   ar
    83    25    24    1
    84    25    28    1
    85    32    33   ar
    86   164   163    1
    87   179   178    2
    88   178   180   am
    89   125   124    2
    90    29    28    1
    91    29    31   ar
    92    33    31   ar
    93   102   101    1
    94   169   171   ar
    95   169   167   ar
    96   163   166    1
    97   163   162    1
    98   166   167    1
    99   124   123    1
   100   103   101    1
   101   171   172   ar
   102   123   122    1
   103   101   100    2
   104   167   168   ar
   105    20    19    2
   106   100    99    1
   107   172   170   ar
   108   122   118   am
   109   168   170   ar
   110    99    98    1
   111   119   118    2
   112   115   114    2
   113    19    18    1
   114   118   117    1
   115    92    90    1
   116   114   113    1
   117    98    97    1
   118    18    21    1
   119    18    17    1
   120    89    88    2
   121   113   112    1
   122    21    22    1
   123    21    23    1
   124   117   120    1
   125   117   116    1
   126   120   121    1
   127    94    97    1
   128    94    93    1
   129    94    95    1
   130    96    95    2
   131    88    93   am
   132    88    87    1
   133    90    91    1
   134    90    87    1
   135   112   106   am
   136    16    14    1
   137    87    86    1
   138     9     8    2
   139    15    14    1
   140   107   106    2
   141    14    13    2
   142   106   105    1
   143    86    76   am
   144    85    84    1
   145   150   149    1
   146     8     7    1
   147    77    76    2
   148    13    12    1
   149    83    84   ar
   150    83    81   ar
   151    11    12    1
   152    11    10    1
   153   104   105    1
   154    76    75    1
   155   105   108    1
   156    84    82   ar
   157     7    10    1
   158     7     6    1
   159    81    79   ar
   160   149   148    1
   161   108   109    1
   162    82    80   ar
   163   109   110    1
   164   109   111    1
   165   148   147    1
   166    79    80   ar
   167    79    78    1
   168    75    74    1
   169    75    78    1
   170   160   159    1
   171   147   146    1
   172   159   161    1
   173   159   158    2
   174   146   143    1
   175   158   157    1
   176     4     3    2
   177   143   142    1
   178   143   144    1
   179   157   156    1
   180     3     2    1
   181   156   155    1
   182   145   144    2
   183     2     5    1
   184     2     1    1
   185   155   152    1
   186   151   152    1
   187   152   153    1
   188   153   154    2
