@<TRIPOS>MOLECULE
tmp/1we5A00.pdb
 168 164 0 0 0
SMALL
GASTEIGER

@<TRIPOS>ATOM
      1  N        -18.1150    6.0930  118.8410 N.3   270  THR270     -0.1203
      2  CA       -17.2430    7.2360  118.6570 C.3   270  THR270      0.1994
      3  C        -18.0500    8.1930  117.8020 C.2   270  THR270      0.2618
      4  O        -18.7620    7.7740  116.8850 O.2   270  THR270     -0.2717
      5  CB       -15.9250    6.8890  117.9270 C.3   270  THR270      0.1784
      6  OG1      -15.0940    8.0580  117.8900 O.3   270  THR270     -0.2211
      7  CG2      -16.1910    6.4320  116.4960 C.3   270  THR270      0.0376
      8  N        -17.9610    9.4750  118.1200 N.am  271  THR271     -0.1952
      9  CA       -18.6990   10.4780  117.3760 C.3   271  THR271      0.1897
     10  C        -17.8100   10.9950  116.2560 C.2   271  THR271      0.2313
     11  O        -16.5870   11.0520  116.4020 O.2   271  THR271     -0.2863
     12  CB       -19.1200   11.6360  118.2960 C.3   271  THR271      0.1794
     13  OG1      -19.9970   12.5180  117.5850 O.3   271  THR271     -0.2208
     14  CG2      -17.8890   12.3950  118.7850 C.3   271  THR271      0.0378
     15  N        -15.3830   12.4090  113.5930 N.3   273  PHE273     -0.1241
     16  CA       -14.0870   13.0510  113.8010 C.3   273  PHE273      0.1605
     17  C        -14.2080   14.5680  113.9830 C.2   273  PHE273      0.2264
     18  O        -14.6840   15.2690  113.0880 O.2   273  PHE273     -0.2867
     19  CB       -13.1760   12.7190  112.6090 C.3   273  PHE273      0.0534
     20  CG       -11.7440   13.1360  112.7890 C.ar  273  PHE273     -0.0203
     21  CD1      -11.0710   12.8790  113.9780 C.ar  273  PHE273     -0.0042
     22  CD2      -11.0550   13.7530  111.7490 C.ar  273  PHE273     -0.0042
     23  CE1       -9.7340   13.2290  114.1280 C.ar  273  PHE273     -0.0003
     24  CE2       -9.7190   14.1060  111.8890 C.ar  273  PHE273     -0.0003
     25  CZ        -9.0570   13.8440  113.0800 C.ar  273  PHE273     -0.0000
     26  N        -15.6440    6.4950  123.0210 N.3   299  HIS299     -0.1241
     27  CA       -14.2620    6.7990  122.6680 C.3   299  HIS299      0.1621
     28  C        -14.0530    8.2680  122.3130 C.2   299  HIS299      0.2264
     29  O        -14.7930    8.8240  121.5050 O.2   299  HIS299     -0.2867
     30  CB       -13.8350    5.9130  121.4820 C.3   299  HIS299      0.0745
     31  CG       -12.5170    6.2940  120.8810 C.ar  299  HIS299      0.0817
     32  ND1      -11.3080    5.9950  121.4750 N.ar  299  HIS299     -0.2268
     33  CD2      -12.2210    6.9840  119.7530 C.ar  299  HIS299      0.1154
     34  CE1      -10.3260    6.4840  120.7390 C.ar  299  HIS299      0.1986
     35  NE2      -10.8530    7.0890  119.6900 N.ar  299  HIS299     -0.2212
     36  N        -11.8970   10.8880  120.4370 N.3   301  ASP301     -0.1225
     37  CA       -10.9090   10.9310  119.3660 C.3   301  ASP301      0.1805
     38  C         -9.8440   11.9920  119.6320 C.2   301  ASP301      0.2598
     39  O         -9.7650   12.5310  120.7330 O.2   301  ASP301     -0.2718
     40  CB       -11.5910   11.1710  118.0100 C.3   301  ASP301      0.1424
     41  CG       -11.9460   12.6390  117.7610 C.2   301  ASP301      0.3668
     42  OD1      -12.9960   12.8830  117.1240 O.co2 301  ASP301     -0.2456
     43  OD2      -11.1840   13.5490  118.1710 O.co2 301  ASP301     -0.2456
     44  N         -9.0330   12.2830  118.6180 N.am  302  CYS302     -0.1970
     45  CA        -7.9520   13.2690  118.7110 C.3   302  CYS302      0.1712
     46  C         -8.3180   14.5980  119.3760 C.2   302  CYS302      0.2296
     47  O         -7.5180   15.1560  120.1300 O.2   302  CYS302     -0.2864
     48  CB        -7.4020   13.5690  117.3120 C.3   302  CYS302      0.0983
     49  SG        -6.7870   12.1310  116.4120 S.3   302  CYS302     -0.0798
     50  N         -8.0290    8.2300  122.5500 N.3   338  TRP338     -0.1241
     51  CA        -7.0790    8.0840  121.4640 C.3   338  TRP338      0.1605
     52  C         -5.7080    8.5960  121.8820 C.2   338  TRP338      0.2264
     53  O         -5.5930    9.6470  122.5100 O.2   338  TRP338     -0.2867
     54  CB        -7.5720    8.8790  120.2510 C.3   338  TRP338      0.0550
     55  CG        -6.6520    8.8580  119.0570 C.ar  338  TRP338      0.0003
     56  CD1       -6.7820    8.0850  117.9330 C.ar  338  TRP338      0.0946
     57  CD2       -5.4800    9.6600  118.8570 C.ar  338  TRP338      0.0152
     58  NE1       -5.7700    8.3630  117.0470 N.ar  338  TRP338     -0.2442
     59  CE2       -4.9550    9.3240  117.5890 C.ar  338  TRP338      0.0810
     60  CE3       -4.8240   10.6280  119.6250 C.ar  338  TRP338      0.0012
     61  CZ2       -3.7970    9.9240  117.0690 C.ar  338  TRP338      0.0191
     62  CZ3       -3.6700   11.2260  119.1080 C.ar  338  TRP338      0.0001
     63  CH2       -3.1710   10.8680  117.8410 C.ar  338  TRP338      0.0015
     64  N          1.3220   14.0140  109.3150 N.3   373  TRP373     -0.1241
     65  CA         0.4260   13.8730  110.4700 C.3   373  TRP373      0.1605
     66  C          0.4120   15.1020  111.3780 C.2   373  TRP373      0.2264
     67  O         -0.6490   15.6020  111.7470 O.2   373  TRP373     -0.2867
     68  CB         0.7890   12.6430  111.3110 C.3   373  TRP373      0.0550
     69  CG        -0.1380   12.4510  112.5020 C.ar  373  TRP373      0.0003
     70  CD1        0.2210   12.3400  113.8210 C.ar  373  TRP373      0.0946
     71  CD2       -1.5690   12.3200  112.4660 C.ar  373  TRP373      0.0152
     72  NE1       -0.8940   12.1480  114.6040 N.ar  373  TRP373     -0.2442
     73  CE2       -2.0050   12.1300  113.8000 C.ar  373  TRP373      0.0810
     74  CE3       -2.5250   12.3420  111.4370 C.ar  373  TRP373      0.0012
     75  CZ2       -3.3590   11.9620  114.1310 C.ar  373  TRP373      0.0191
     76  CZ3       -3.8710   12.1760  111.7670 C.ar  373  TRP373      0.0001
     77  CH2       -4.2720   11.9890  113.1050 C.ar  373  TRP373      0.0015
     78  N         -6.7970    3.5880  122.4820 N.3   406  LYS406     -0.1245
     79  CA        -6.7550    3.1970  121.0870 C.3   406  LYS406      0.1561
     80  C         -5.3450    3.5800  120.6650 C.2   406  LYS406      0.2260
     81  O         -5.0700    4.7490  120.4060 O.2   406  LYS406     -0.2867
     82  CB        -7.7670    3.9670  120.2420 C.3   406  LYS406      0.0271
     83  CG        -7.5120    3.7990  118.7470 C.3   406  LYS406      0.0035
     84  CD        -8.6760    4.2830  117.8970 C.3   406  LYS406      0.0206
     85  CE        -8.2170    4.6640  116.4890 C.3   406  LYS406      0.1093
     86  NZ        -7.3360    3.6390  115.8730 N.3   406  LYS406     -0.1314
     87  N         -3.1150    4.2060  118.2360 N.3   408  ASP408     -0.1225
     88  CA        -3.0980    4.4690  116.8100 C.3   408  ASP408      0.1805
     89  C         -1.6810    4.6550  116.2860 C.2   408  ASP408      0.2597
     90  O         -0.7490    4.8920  117.0590 O.2   408  ASP408     -0.2718
     91  CB        -3.9340    5.7160  116.5180 C.3   408  ASP408      0.1424
     92  CG        -4.7560    5.5800  115.2590 C.2   408  ASP408      0.3668
     93  OD1       -5.6820    6.4000  115.0480 O.co2 408  ASP408     -0.2456
     94  OD2       -4.4730    4.6480  114.4780 O.co2 408  ASP408     -0.2456
     95  N         -1.5320    4.5440  114.9660 N.am  409  PHE409     -0.1976
     96  CA        -0.2450    4.7050  114.2990 C.3   409  PHE409      0.1639
     97  C          0.8200    3.7510  114.8240 C.2   409  PHE409      0.2290
     98  O          0.5060    2.7030  115.3910 O.2   409  PHE409     -0.2864
     99  CB         0.2460    6.1470  114.4330 C.3   409  PHE409      0.0560
    100  CG        -0.6390    7.1510  113.7540 C.ar  409  PHE409     -0.0200
    101  CD1       -1.8720    7.4970  114.3000 C.ar  409  PHE409     -0.0042
    102  CD2       -0.2630    7.7190  112.5410 C.ar  409  PHE409     -0.0042
    103  CE1       -2.7200    8.3900  113.6480 C.ar  409  PHE409     -0.0003
    104  CE2       -1.1070    8.6170  111.8770 C.ar  409  PHE409     -0.0003
    105  CZ        -2.3390    8.9510  112.4330 C.ar  409  PHE409     -0.0000
    106  N         -3.9060   -0.2570  115.9830 N.3   457  ARG457     -0.1245
    107  CA        -3.8230   -0.1910  114.5360 C.3   457  ARG457      0.1563
    108  C         -2.5800   -0.8920  113.9810 C.2   457  ARG457      0.2260
    109  O         -2.6020   -1.4120  112.8670 O.2   457  ARG457     -0.2867
    110  CB        -3.8480    1.2660  114.0760 C.3   457  ARG457      0.0307
    111  CG        -4.2330    1.4250  112.6050 C.3   457  ARG457      0.0489
    112  CD        -3.2530    2.3160  111.8840 C.3   457  ARG457      0.2205
    113  NE        -3.7660    3.6570  111.6590 N.pl3 457  ARG457     -0.0865
    114  CZ        -3.0470    4.6590  111.1580 C.cat 457  ARG457      0.5346
    115  NH1       -1.7670    4.4860  110.8280 N.pl3 457  ARG457      0.1354
    116  NH2       -3.6200    5.8400  110.9720 N.pl3 457  ARG457      0.1354
    117  N         -7.4760   -3.2080  115.6250 N.3   470  TRP470     -0.1241
    118  CA        -8.4460   -2.4950  114.8150 C.3   470  TRP470      0.1605
    119  C         -8.0570   -2.4540  113.3360 C.2   470  TRP470      0.2264
    120  O         -6.9430   -2.0630  112.9830 O.2   470  TRP470     -0.2867
    121  CB        -8.5780   -1.0940  115.4080 C.3   470  TRP470      0.0550
    122  CG        -9.5010   -0.1990  114.7150 C.ar  470  TRP470      0.0003
    123  CD1      -10.8610   -0.2770  114.6880 C.ar  470  TRP470      0.0946
    124  CD2       -9.1430    0.9540  113.9570 C.ar  470  TRP470      0.0152
    125  NE1      -11.3760    0.7680  113.9550 N.ar  470  TRP470     -0.2442
    126  CE2      -10.3420    1.5390  113.4940 C.ar  470  TRP470      0.0810
    127  CE3       -7.9240    1.5540  113.6230 C.ar  470  TRP470      0.0012
    128  CZ2      -10.3570    2.7000  112.7140 C.ar  470  TRP470      0.0191
    129  CZ3       -7.9380    2.7100  112.8470 C.ar  470  TRP470      0.0001
    130  CH2       -9.1480    3.2690  112.4020 C.ar  470  TRP470      0.0015
    131  N         -9.7060    2.4540  108.8300 N.3   473  ASP473     -0.1239
    132  CA       -10.8770    3.0610  108.2010 C.3   473  ASP473      0.1674
    133  C        -11.0390    2.6000  106.7540 C.2   473  ASP473      0.2266
    134  O        -10.0540    2.4010  106.0420 O.2   473  ASP473     -0.2867
    135  CB       -10.7760    4.5930  108.2550 C.3   473  ASP473      0.1410
    136  CG       -10.7960    5.1360  109.6840 C.2   473  ASP473      0.3668
    137  OD1      -11.7420    4.8120  110.4430 O.co2 473  ASP473     -0.2456
    138  OD2       -9.8680    5.8930  110.0450 O.co2 473  ASP473     -0.2456
    139  N        -15.2860   10.4790  105.7070 N.3   506  GLU506     -0.1245
    140  CA       -15.7370   11.6630  104.9850 C.3   506  GLU506      0.1567
    141  C        -16.3640   11.3400  103.6270 C.2   506  GLU506      0.2260
    142  O        -16.0750   10.2990  103.0220 O.2   506  GLU506     -0.2867
    143  CB       -14.5620   12.6320  104.7910 C.3   506  GLU506      0.0388
    144  CG       -13.6560   12.7970  106.0170 C.3   506  GLU506      0.1160
    145  CD       -12.8240   11.5510  106.3110 C.2   506  GLU506      0.3649
    146  OE1      -12.0660   11.1170  105.4150 O.co2 506  GLU506     -0.2457
    147  OE2      -12.9280   11.0060  107.4330 O.co2 506  GLU506     -0.2457
    148  N        -17.6080   -1.2870  116.5310 N.3   528  ARG528     -0.1245
    149  CA       -17.5840    0.1200  116.8830 C.3   528  ARG528      0.1563
    150  C        -18.3710    0.9790  115.8880 C.2   528  ARG528      0.2260
    151  O        -18.0970    0.9580  114.6870 O.2   528  ARG528     -0.2867
    152  CB       -16.1340    0.5730  116.9530 C.3   528  ARG528      0.0307
    153  CG       -15.9080    1.9710  117.4660 C.3   528  ARG528      0.0489
    154  CD       -14.8270    2.6020  116.6230 C.3   528  ARG528      0.2205
    155  NE       -13.7950    3.2730  117.3940 N.pl3 528  ARG528     -0.0865
    156  CZ       -12.8220    3.9950  116.8460 C.cat 528  ARG528      0.5346
    157  NH1      -12.7530    4.1350  115.5270 N.pl3 528  ARG528      0.1354
    158  NH2      -11.9150    4.5760  117.6200 N.pl3 528  ARG528      0.1354
    159  N        -19.1810    4.2700  114.1130 N.3   530  HIS530     -0.1241
    160  CA       -18.3820    5.4570  113.8440 C.3   530  HIS530      0.1621
    161  C        -19.1590    6.5810  113.1710 C.2   530  HIS530      0.2264
    162  O        -19.6430    6.4330  112.0500 O.2   530  HIS530     -0.2867
    163  CB       -17.1910    5.0790  112.9740 C.3   530  HIS530      0.0745
    164  CG       -16.0520    6.0390  113.0650 C.ar  530  HIS530      0.0817
    165  ND1      -16.2270    7.4050  113.0320 N.ar  530  HIS530     -0.2268
    166  CD2      -14.7180    5.8330  113.1530 C.ar  530  HIS530      0.1154
    167  CE1      -15.0490    7.9980  113.0920 C.ar  530  HIS530      0.1986
    168  NE2      -14.1160    7.0660  113.1660 N.ar  530  HIS530     -0.2212
@<TRIPOS>BOND
     1   142   141    2
     2   141   140    1
     3   143   140    1
     4   143   144    1
     5   140   139    1
     6   146   145   ar
     7   144   145    1
     8   134   133    2
     9   145   147   ar
    10   133   132    1
    11   132   135    1
    12   132   131    1
    13   135   136    1
    14    64    65    1
    15   136   138   ar
    16   136   137   ar
    17    65    68    1
    18    65    66    1
    19   115   114    1
    20   116   114    1
    21   114   113    2
    22    68    69    1
    23    66    67    2
    24    74    76   ar
    25    74    71   ar
    26   113   112    1
    27    22    24   ar
    28    22    20   ar
    29    76    77   ar
    30   104   105   ar
    31   104   102   ar
    32   112   111    1
    33    24    25   ar
    34   162   161    2
    35   130   128   ar
    36   130   129   ar
    37   105   103   ar
    38    71    69   ar
    39    71    73   ar
    40    69    70   ar
    41   102   100   ar
    42   111   110    1
    43    19    20    1
    44    19    16    1
    45   128   126   ar
    46    20    21   ar
    47   129   127   ar
    48   109   108    2
    49   163   164    1
    50   163   160    1
    51   120   119    2
    52   165   164   ar
    53   165   167   ar
    54   164   166   ar
    55    25    23   ar
    56    18    17    2
    57   167   168   ar
    58    77    75   ar
    59   166   168   ar
    60   161   160    1
    61   119   118    1
    62   126   125   ar
    63   126   124   ar
    64    15    16    1
    65   127   124   ar
    66   103   101   ar
    67   100   101   ar
    68   100    99    1
    69    73    75   ar
    70    73    72   ar
    71    16    17    1
    72    70    72   ar
    73   160   159    1
    74   125   123   ar
    75   124   122   ar
    76    21    23   ar
    77   108   107    1
    78   110   107    1
    79    96    99    1
    80    96    97    1
    81    96    95    1
    82    94    92   ar
    83   107   106    1
    84   151   150    2
    85   123   122   ar
    86   122   121    1
    87   118   121    1
    88   118   117    1
    89    97    98    2
    90    95    89   am
    91    93    92   ar
    92    92    91    1
    93   157   156    1
    94    86    85    1
    95   150   149    1
    96    10    11    2
    97    10     9    1
    98    89    88    1
    99    89    90    2
   100    49    48    1
   101    85    84    1
   102     7     5    1
   103    91    88    1
   104   148   149    1
   105   154   155    1
   106   154   153    1
   107    88    87    1
   108   156   155    2
   109   156   158    1
   110   149   152    1
   111     4     3    2
   112   152   153    1
   113    58    59   ar
   114    58    56   ar
   115    61    59   ar
   116    61    63   ar
   117    42    41   ar
   118    48    45    1
   119     9     8    1
   120     9    12    1
   121    13    12    1
   122    59    57   ar
   123    41    40    1
   124    41    43   ar
   125     3     8   am
   126     3     2    1
   127    63    62   ar
   128     6     5    1
   129    84    83    1
   130     5     2    1
   131    56    55   ar
   132    40    37    1
   133    12    14    1
   134    44    45    1
   135    44    38   am
   136     2     1    1
   137    45    46    1
   138    83    82    1
   139    57    55   ar
   140    57    60   ar
   141    55    54    1
   142    62    60   ar
   143    37    38    1
   144    37    36    1
   145    46    47    2
   146    38    39    2
   147    35    33   ar
   148    35    34   ar
   149    33    31   ar
   150    82    79    1
   151    54    51    1
   152    81    80    2
   153    80    79    1
   154    34    32   ar
   155    31    32   ar
   156    31    30    1
   157    79    78    1
   158    51    52    1
   159    51    50    1
   160    30    27    1
   161    29    28    2
   162    52    53    2
   163    28    27    1
   164    27    26    1
