@<TRIPOS>MOLECULE
tmp/1we5B00.pdb
 163 160 0 0 0
SMALL
GASTEIGER

@<TRIPOS>ATOM
      1  N         -8.8750   47.8380   75.3740 N.3   270  THR270     -0.1218
      2  CA        -9.0490   46.4000   75.4050 C.3   270  THR270      0.1862
      3  C         -9.9520   46.0960   76.5910 C.2   270  THR270      0.2287
      4  O         -9.7850   46.6770   77.6670 O.2   270  THR270     -0.2866
      5  CB        -7.6930   45.6680   75.5720 C.3   270  THR270      0.1770
      6  OG1       -7.9250   44.2760   75.8220 O.3   270  THR270     -0.2211
      7  CG2       -6.8960   46.2610   76.7190 C.3   270  THR270      0.0375
      8  N         -9.5680   40.9160   80.0670 N.3   273  PHE273     -0.1241
      9  CA        -9.3730   39.5860   79.5070 C.3   273  PHE273      0.1605
     10  C        -10.5330   38.6490   79.8470 C.2   273  PHE273      0.2264
     11  O        -10.9140   38.5320   81.0150 O.2   273  PHE273     -0.2867
     12  CB        -8.0680   38.9820   80.0360 C.3   273  PHE273      0.0534
     13  CG        -7.6650   37.7000   79.3540 C.ar  273  PHE273     -0.0203
     14  CD1       -6.9950   36.7060   80.0590 C.ar  273  PHE273     -0.0042
     15  CD2       -7.9310   37.4970   78.0000 C.ar  273  PHE273     -0.0042
     16  CE1       -6.5950   35.5290   79.4290 C.ar  273  PHE273     -0.0003
     17  CE2       -7.5340   36.3220   77.3590 C.ar  273  PHE273     -0.0003
     18  CZ        -6.8660   35.3380   78.0750 C.ar  273  PHE273     -0.0000
     19  N         -9.1040   46.4540   70.6600 N.3   299  HIS299     -0.1241
     20  CA        -8.3420   45.2080   70.5870 C.3   299  HIS299      0.1621
     21  C         -9.1090   43.9690   71.0410 C.2   299  HIS299      0.2264
     22  O         -9.7370   43.9730   72.0980 O.2   299  HIS299     -0.2867
     23  CB        -7.0600   45.3440   71.4190 C.3   299  HIS299      0.0745
     24  CG        -6.2750   44.0730   71.5420 C.ar  299  HIS299      0.0817
     25  ND1       -5.4830   43.5820   70.5250 N.ar  299  HIS299     -0.2268
     26  CD2       -6.1650   43.1900   72.5650 C.ar  299  HIS299      0.1154
     27  CE1       -4.9180   42.4540   70.9180 C.ar  299  HIS299      0.1986
     28  NE2       -5.3150   42.1950   72.1510 N.ar  299  HIS299     -0.2212
     29  N         -8.9590   40.2400   72.3840 N.3   301  ASP301     -0.1225
     30  CA        -8.0520   39.3480   73.1000 C.3   301  ASP301      0.1805
     31  C         -8.1010   37.8850   72.6590 C.2   301  ASP301      0.2598
     32  O         -8.9130   37.5000   71.8180 O.2   301  ASP301     -0.2718
     33  CB        -8.2680   39.4510   74.6240 C.3   301  ASP301      0.1424
     34  CG        -9.6230   38.9160   75.0850 C.2   301  ASP301      0.3668
     35  OD1       -9.9700   37.7590   74.7570 O.co2 301  ASP301     -0.2456
     36  OD2      -10.3370   39.6570   75.8010 O.co2 301  ASP301     -0.2456
     37  N         -7.2060   37.0920   73.2420 N.am  302  CYS302     -0.1970
     38  CA        -7.0500   35.6660   72.9560 C.3   302  CYS302      0.1712
     39  C         -8.3230   34.9030   72.6630 C.2   302  CYS302      0.2296
     40  O         -8.3440   34.0420   71.7880 O.2   302  CYS302     -0.2864
     41  CB        -6.3470   34.9710   74.1240 C.3   302  CYS302      0.0983
     42  SG        -4.8130   35.7470   74.6440 S.3   302  CYS302     -0.0798
     43  N         -5.2650   39.7550   68.8080 N.3   338  TRP338     -0.1241
     44  CA        -4.1720   39.0670   69.4820 C.3   338  TRP338      0.1605
     45  C         -3.7410   37.8480   68.6680 C.2   338  TRP338      0.2264
     46  O         -4.5750   37.1750   68.0660 O.2   338  TRP338     -0.2867
     47  CB        -4.6550   38.6230   70.8610 C.3   338  TRP338      0.0550
     48  CG        -3.6610   37.8400   71.6590 C.ar  338  TRP338      0.0003
     49  CD1       -2.8480   38.3130   72.6560 C.ar  338  TRP338      0.0946
     50  CD2       -3.3560   36.4480   71.5210 C.ar  338  TRP338      0.0152
     51  NE1       -2.0620   37.3030   73.1430 N.ar  338  TRP338     -0.2442
     52  CE2       -2.3480   36.1470   72.4650 C.ar  338  TRP338      0.0810
     53  CE3       -3.8330   35.4270   70.6900 C.ar  338  TRP338      0.0012
     54  CZ2       -1.8040   34.8630   72.6000 C.ar  338  TRP338      0.0191
     55  CZ3       -3.2910   34.1470   70.8240 C.ar  338  TRP338      0.0001
     56  CH2       -2.2870   33.8800   71.7720 C.ar  338  TRP338      0.0015
     57  N          1.7540   26.8700   78.1160 N.3   373  TRP373     -0.1241
     58  CA         0.7290   27.9030   77.9440 C.3   373  TRP373      0.1605
     59  C         -0.5630   27.3980   77.3080 C.2   373  TRP373      0.2264
     60  O         -1.6350   27.9660   77.5030 O.2   373  TRP373     -0.2867
     61  CB         1.2680   29.0890   77.1460 C.3   373  TRP373      0.0550
     62  CG         0.3470   30.2660   77.2540 C.ar  373  TRP373      0.0003
     63  CD1       -0.0030   30.9410   78.4010 C.ar  373  TRP373      0.0946
     64  CD2       -0.3940   30.8710   76.1940 C.ar  373  TRP373      0.0152
     65  NE1       -0.9210   31.9250   78.1130 N.ar  373  TRP373     -0.2442
     66  CE2       -1.1790   31.9050   76.7680 C.ar  373  TRP373      0.0810
     67  CE3       -0.4720   30.6440   74.8180 C.ar  373  TRP373      0.0012
     68  CZ2       -2.0300   32.7040   76.0110 C.ar  373  TRP373      0.0191
     69  CZ3       -1.3090   31.4310   74.0690 C.ar  373  TRP373      0.0001
     70  CH2       -2.0830   32.4540   74.6670 C.ar  373  TRP373      0.0015
     71  N         -1.1510   42.1660   67.7040 N.3   406  LYS406     -0.1245
     72  CA        -0.4170   42.1820   68.9530 C.3   406  LYS406      0.1561
     73  C          0.2810   40.8220   68.9370 C.2   406  LYS406      0.2260
     74  O         -0.3630   39.7950   69.1570 O.2   406  LYS406     -0.2867
     75  CB        -1.3530   42.2800   70.1650 C.3   406  LYS406      0.0271
     76  CG        -0.6010   42.1830   71.4840 C.3   406  LYS406      0.0035
     77  CD        -1.4580   42.5770   72.6710 C.3   406  LYS406      0.0206
     78  CE        -0.6310   42.6350   73.9660 C.3   406  LYS406      0.1093
     79  NZ        -0.0840   41.3010   74.3930 N.3   406  LYS406     -0.1314
     80  N          1.9670   38.5770   70.7390 N.3   408  ASP408     -0.1225
     81  CA         2.1720   38.3800   72.1600 C.3   408  ASP408      0.1805
     82  C          3.2290   37.5020   72.8030 C.2   408  ASP408      0.2597
     83  O          3.5050   37.6870   73.9890 O.2   408  ASP408     -0.2718
     84  CB         0.8360   38.0360   72.8140 C.3   408  ASP408      0.1424
     85  CG         0.7580   38.5250   74.2490 C.2   408  ASP408      0.3668
     86  OD1       -0.2880   38.3280   74.8980 O.co2 408  ASP408     -0.2456
     87  OD2        1.7480   39.1190   74.7270 O.co2 408  ASP408     -0.2456
     88  N          3.8230   36.5400   72.1180 N.am  409  PHE409     -0.1976
     89  CA         4.8270   35.7670   72.8590 C.3   409  PHE409      0.1639
     90  C          6.1540   35.7290   72.1320 C.2   409  PHE409      0.2290
     91  O          6.6680   36.7720   71.7230 O.2   409  PHE409     -0.2864
     92  CB         4.3310   34.3400   73.1500 C.3   409  PHE409      0.0560
     93  CG         3.2750   34.2640   74.2320 C.ar  409  PHE409     -0.0200
     94  CD1        1.9940   34.7750   74.0240 C.ar  409  PHE409     -0.0042
     95  CD2        3.5680   33.6870   75.4700 C.ar  409  PHE409     -0.0042
     96  CE1        1.0220   34.7160   75.0320 C.ar  409  PHE409     -0.0003
     97  CE2        2.6000   33.6220   76.4870 C.ar  409  PHE409     -0.0003
     98  CZ         1.3290   34.1370   76.2690 C.ar  409  PHE409     -0.0000
     99  N          5.5060   41.9040   72.1540 N.3   457  ARG457     -0.1245
    100  CA         5.9800   41.6340   73.5120 C.3   457  ARG457      0.1563
    101  C          7.4400   41.2160   73.5080 C.2   457  ARG457      0.2260
    102  O          8.1750   41.4880   74.4550 O.2   457  ARG457     -0.2867
    103  CB         5.1370   40.5300   74.1840 C.3   457  ARG457      0.0307
    104  CG         5.2320   40.5300   75.7200 C.3   457  ARG457      0.0489
    105  CD         4.3300   39.4740   76.3970 C.3   457  ARG457      0.2205
    106  NE         4.9600   38.1530   76.4390 N.pl3 457  ARG457     -0.0865
    107  CZ         4.4690   37.0920   77.0790 C.cat 457  ARG457      0.5346
    108  NH1        3.3220   37.1810   77.7440 N.pl3 457  ARG457      0.1354
    109  NH2        5.1320   35.9390   77.0520 N.pl3 457  ARG457      0.1354
    110  N          5.3060   46.3580   73.1870 N.3   470  TRP470     -0.1241
    111  CA         4.4370   46.4240   74.3490 C.3   470  TRP470      0.1605
    112  C          5.1190   46.0200   75.6640 C.2   470  TRP470      0.2264
    113  O          5.7150   44.9480   75.7780 O.2   470  TRP470     -0.2867
    114  CB         3.1940   45.5690   74.0660 C.3   470  TRP470      0.0550
    115  CG         2.2260   45.5390   75.1750 C.ar  470  TRP470      0.0003
    116  CD1        1.5180   46.5970   75.6840 C.ar  470  TRP470      0.0946
    117  CD2        1.8990   44.4060   75.9830 C.ar  470  TRP470      0.0152
    118  NE1        0.7770   46.1880   76.7680 N.ar  470  TRP470     -0.2442
    119  CE2        0.9930   44.8490   76.9750 C.ar  470  TRP470      0.0810
    120  CE3        2.2870   43.0620   75.9690 C.ar  470  TRP470      0.0012
    121  CZ2        0.4680   43.9910   77.9460 C.ar  470  TRP470      0.0191
    122  CZ3        1.7690   42.2080   76.9290 C.ar  470  TRP470      0.0001
    123  CH2        0.8680   42.6770   77.9090 C.ar  470  TRP470      0.0015
    124  N          3.0030   42.2080   80.8500 N.3   473  ASP473     -0.1239
    125  CA         2.0760   42.0060   81.9720 C.3   473  ASP473      0.1674
    126  C          2.5950   42.7290   83.2100 C.2   473  ASP473      0.2266
    127  O          3.6750   42.4200   83.7140 O.2   473  ASP473     -0.2867
    128  CB         1.9390   40.5080   82.2660 C.3   473  ASP473      0.1410
    129  CG         1.5100   39.7090   81.0440 C.2   473  ASP473      0.3668
    130  OD1        1.6010   38.4630   81.0850 O.co2 473  ASP473     -0.2456
    131  OD2        1.0780   40.3230   80.0470 O.co2 473  ASP473     -0.2456
    132  N         -2.7620   43.8720   84.7290 N.3   505  PHE505     -0.1241
    133  CA        -3.2610   43.0220   83.6580 C.3   505  PHE505      0.1605
    134  C         -4.6150   42.4710   84.0950 C.2   505  PHE505      0.2264
    135  O         -5.0500   41.3980   83.6710 O.2   505  PHE505     -0.2867
    136  CB        -2.2640   41.8970   83.3200 C.3   505  PHE505      0.0534
    137  CG        -1.7320   41.1550   84.5160 C.ar  505  PHE505     -0.0203
    138  CD1       -2.5080   40.2070   85.1730 C.ar  505  PHE505     -0.0042
    139  CD2       -0.4370   41.3900   84.9690 C.ar  505  PHE505     -0.0042
    140  CE1       -1.9990   39.5020   86.2660 C.ar  505  PHE505     -0.0003
    141  CE2        0.0790   40.6930   86.0570 C.ar  505  PHE505     -0.0003
    142  CZ        -0.7020   39.7470   86.7060 C.ar  505  PHE505     -0.0000
    143  N         -2.3340   51.8220   75.8260 N.3   528  ARG528     -0.1245
    144  CA        -3.5260   51.0130   75.7320 C.3   528  ARG528      0.1563
    145  C         -4.2680   51.1330   77.0530 C.2   528  ARG528      0.2260
    146  O         -3.6920   50.9330   78.1230 O.2   528  ARG528     -0.2867
    147  CB        -3.1490   49.5630   75.4400 C.3   528  ARG528      0.0307
    148  CG        -4.3160   48.7330   74.9770 C.3   528  ARG528      0.0489
    149  CD        -3.8540   47.4310   74.3680 C.3   528  ARG528      0.2205
    150  NE        -3.2440   46.5590   75.3590 N.pl3 528  ARG528     -0.0865
    151  CZ        -3.2000   45.2380   75.2450 C.cat 528  ARG528      0.5346
    152  NH1       -3.7300   44.6450   74.1810 N.pl3 528  ARG528      0.1354
    153  NH2       -2.6390   44.5130   76.2000 N.pl3 528  ARG528      0.1354
    154  N         -7.4100   49.5650   78.8130 N.3   530  HIS530     -0.1241
    155  CA        -7.5720   48.3430   79.5980 C.3   530  HIS530      0.1621
    156  C         -8.1310   48.6690   80.9820 C.2   530  HIS530      0.2264
    157  O         -9.3450   48.6800   81.1860 O.2   530  HIS530     -0.2867
    158  CB        -6.2260   47.6170   79.7410 C.3   530  HIS530      0.0745
    159  CG        -6.3020   46.3460   80.5260 C.ar  530  HIS530      0.0817
    160  ND1       -6.6980   46.3080   81.8460 N.ar  530  HIS530     -0.2268
    161  CD2       -6.0380   45.0650   80.1740 C.ar  530  HIS530      0.1154
    162  CE1       -6.6770   45.0570   82.2730 C.ar  530  HIS530      0.1986
    163  NE2       -6.2800   44.2830   81.2780 N.ar  530  HIS530     -0.2212
@<TRIPOS>BOND
     1    71    72    1
     2    46    45    2
     3    45    44    1
     4    43    44    1
     5    73    72    1
     6    73    74    2
     7    72    75    1
     8    44    47    1
     9    75    76    1
    10    25    27   ar
    11    25    24   ar
    12    20    19    1
    13    20    21    1
    14    20    23    1
    15    53    55   ar
    16    53    50   ar
    17    80    81    1
    18    55    56   ar
    19    47    48    1
    20    27    28   ar
    21    21    22    2
    22    23    24    1
    23    76    77    1
    24    50    48   ar
    25    50    52   ar
    26    24    26   ar
    27    48    49   ar
    28    91    90    2
    29    56    54   ar
    30    40    39    2
    31    32    31    2
    32    88    82   am
    33    88    89    1
    34    90    89    1
    35    28    26   ar
    36    99   100    1
    37    81    82    1
    38    81    84    1
    39    29    30    1
    40    52    54   ar
    41    52    51   ar
    42    49    51   ar
    43    31    30    1
    44    31    37   am
    45    39    38    1
    46    77    78    1
    47    82    83    2
    48    84    85    1
    49    89    92    1
    50    38    37    1
    51    38    41    1
    52    30    33    1
    53    92    93    1
    54   110   111    1
    55   101   100    1
    56   101   102    2
    57   100   103    1
    58    78    79    1
    59    94    93   ar
    60    94    96   ar
    61   114   111    1
    62   114   115    1
    63    69    70   ar
    64    69    67   ar
    65    41    42    1
    66   152   151    1
    67   103   104    1
    68    93    95   ar
    69    85    87   ar
    70    85    86   ar
    71   111   112    1
    72   149   148    1
    73   149   150    1
    74    33    34    1
    75    70    68   ar
    76    35    34   ar
    77    67    64   ar
    78   148   147    1
    79    96    98   ar
    80    34    36   ar
    81   115   116   ar
    82   115   117   ar
    83   151   150    2
    84   151   153    1
    85     1     2    1
    86     2     5    1
    87     2     3    1
    88   147   144    1
    89    95    97   ar
    90     5     6    1
    91     5     7    1
    92   112   113    2
    93   116   118   ar
    94   104   105    1
    95   144   143    1
    96   144   145    1
    97   120   117   ar
    98   120   122   ar
    99   117   119   ar
   100    68    66   ar
   101    64    66   ar
   102    64    62   ar
   103    98    97   ar
   104   105   106    1
   105   106   107    2
   106     3     4    2
   107   118   119   ar
   108    66    65   ar
   109   122   123   ar
   110   119   121   ar
   111   109   107    1
   112   145   146    2
   113   107   108    1
   114    61    62    1
   115    61    58    1
   116    62    63   ar
   117    59    60    2
   118    59    58    1
   119    17    15   ar
   120    17    18   ar
   121   123   121   ar
   122    58    57    1
   123    15    13   ar
   124    18    16   ar
   125    65    63   ar
   126   154   155    1
   127    13    12    1
   128    13    14   ar
   129    16    14   ar
   130     9    10    1
   131     9    12    1
   132     9     8    1
   133   155   158    1
   134   155   156    1
   135   158   159    1
   136    10    11    2
   137   131   129   ar
   138   161   159   ar
   139   161   163   ar
   140   159   160   ar
   141   124   125    1
   142   156   157    2
   143   129   130   ar
   144   129   128    1
   145   163   162   ar
   146   160   162   ar
   147   125   128    1
   148   125   126    1
   149   126   127    2
   150   136   133    1
   151   136   137    1
   152   133   134    1
   153   133   132    1
   154   135   134    2
   155   137   139   ar
   156   137   138   ar
   157   139   141   ar
   158   138   140   ar
   159   141   142   ar
   160   140   142   ar
