@<TRIPOS>MOLECULE
tmp/1wf3A00.pdb
 188 184 0 0 0
SMALL
GASTEIGER

@<TRIPOS>ATOM
      1  N         52.9100   33.0250    2.6120 N.3    14  PRO14      -0.2102
      2  CA        53.7060   32.8570    1.3930 C.3    14  PRO14       0.1504
      3  C         53.0290   33.3450    0.1060 C.2    14  PRO14       0.2576
      4  O         51.7870   33.4480    0.0160 O.2    14  PRO14      -0.2718
      5  CB        53.9580   31.3400    1.3390 C.3    14  PRO14       0.0282
      6  CG        53.7340   30.8640    2.7650 C.3    14  PRO14       0.0208
      7  CD        52.5530   31.7170    3.1940 C.3    14  PRO14       0.0893
      8  N         53.8610   33.6800   -0.8740 N.am   15  ASN15      -0.1961
      9  CA        53.3900   34.0400   -2.2090 C.3    15  ASN15       0.1819
     10  C         52.6280   35.3510   -2.3790 C.2    15  ASN15       0.2621
     11  O         51.9980   35.5520   -3.4160 O.2    15  ASN15      -0.2715
     12  CB        52.5320   32.8690   -2.7420 C.3    15  ASN15       0.1195
     13  CG        53.0380   32.3160   -4.0650 C.2    15  ASN15       0.2630
     14  OD1       54.0480   32.7740   -4.5960 O.2    15  ASN15      -0.2716
     15  ND2       52.3320   31.3190   -4.6040 N.am   15  ASN15      -0.0877
     16  N         52.7020   36.2540   -1.4000 N.am   16  VAL16      -0.1963
     17  CA        51.9880   37.5330   -1.5080 C.3    16  VAL16       0.1727
     18  C         52.7940   38.6280   -2.1960 C.2    16  VAL16       0.2617
     19  O         52.2420   39.6540   -2.5900 O.2    16  VAL16      -0.2715
     20  CB        51.5360   38.0330   -0.1150 C.3    16  VAL16       0.0290
     21  CG1       50.5540   37.0320    0.4810 C.3    16  VAL16       0.0023
     22  CG2       52.7570   38.2280    0.8050 C.3    16  VAL16       0.0023
     23  N         54.1080   38.4140   -2.3240 N.am   17  GLY17      -0.1940
     24  CA        54.9630   39.3820   -2.9900 C.3    17  GLY17       0.2014
     25  C         55.9390   40.1340   -2.1050 C.2    17  GLY17       0.2639
     26  O         56.3870   41.2250   -2.4640 O.2    17  GLY17      -0.2714
     27  N         56.2530   39.5730   -0.9420 N.am   18  LYS18      -0.1963
     28  CA        57.1750   40.2210   -0.0080 C.3    18  LYS18       0.1728
     29  C         58.5560   40.4590   -0.6140 C.2    18  LYS18       0.2617
     30  O         59.1030   41.5540   -0.5060 O.2    18  LYS18      -0.2715
     31  CB        57.3120   39.3940    1.2690 C.3    18  LYS18       0.0311
     32  CG        55.9760   39.2580    2.0270 C.3    18  LYS18       0.0038
     33  CD        56.1200   38.5210    3.3470 C.3    18  LYS18       0.0206
     34  CE        56.6590   37.1140    3.1470 C.3    18  LYS18       0.1093
     35  NZ        55.8010   36.2680    2.2270 N.3    18  LYS18      -0.1314
     36  N         59.1320   39.4330   -1.2270 N.am   19  SER19      -0.1936
     37  CA        60.4520   39.5930   -1.8240 C.3    19  SER19       0.2055
     38  C         60.4090   40.4970   -3.0520 C.2    19  SER19       0.2643
     39  O         61.3550   41.2300   -3.3280 O.2    19  SER19      -0.2714
     40  CB        61.0160   38.2290   -2.1960 C.3    19  SER19       0.2130
     41  OG        61.1460   37.4580   -1.0200 O.3    19  SER19      -0.2179
     42  N         59.3150   40.4290   -3.8060 N.am   20  THR20      -0.1950
     43  CA        59.1610   41.2870   -4.9660 C.3    20  THR20       0.1897
     44  C         59.1300   42.7340   -4.4800 C.2    20  THR20       0.2313
     45  O         59.7530   43.6280   -5.0830 O.2    20  THR20      -0.2863
     46  CB        57.8360   40.9850   -5.7080 C.3    20  THR20       0.1794
     47  OG1       57.8790   39.6420   -6.2120 O.3    20  THR20      -0.2208
     48  CG2       57.6290   41.9840   -6.8610 C.3    20  THR20       0.0378
     49  N         65.2080   36.2080   -3.9190 N.3    32  PRO32      -0.2102
     50  CA        64.6370   35.2490   -4.8680 C.3    32  PRO32       0.1504
     51  C         63.1270   35.4360   -4.9110 C.2    32  PRO32       0.2576
     52  O         62.4970   35.7890   -3.9020 O.2    32  PRO32      -0.2718
     53  CB        65.0360   33.8990   -4.2870 C.3    32  PRO32       0.0282
     54  CG        65.0100   34.1670   -2.8000 C.3    32  PRO32       0.0208
     55  CD        65.6810   35.5270   -2.6970 C.3    32  PRO32       0.0893
     56  N         62.5610   35.1950   -6.0840 N.am   33  ILE33      -0.1966
     57  CA        61.1400   35.3360   -6.3030 C.3    33  ILE33       0.1727
     58  C         60.6210   34.1740   -7.1340 C.2    33  ILE33       0.2617
     59  O         61.2780   33.7420   -8.0890 O.2    33  ILE33      -0.2715
     60  CB        60.8520   36.6570   -7.0340 C.3    33  ILE33       0.0290
     61  CG1       61.1020   37.8330   -6.0780 C.3    33  ILE33       0.0022
     62  CG2       59.4310   36.6580   -7.5730 C.3    33  ILE33       0.0023
     63  CD1       60.8700   39.1600   -6.7160 C.3    33  ILE33       0.0001
     64  N         59.4570   33.6390   -6.7660 N.am   34  SER34      -0.1936
     65  CA        58.8910   32.5440   -7.5480 C.3    34  SER34       0.2040
     66  C         57.3990   32.4400   -7.3260 C.2    34  SER34       0.2485
     67  O         56.8560   33.0230   -6.3850 O.2    34  SER34      -0.2729
     68  CB        59.5620   31.2070   -7.2010 C.3    34  SER34       0.2129
     69  OG        58.8040   30.4250   -6.2760 O.3    34  SER34      -0.2179
     70  N         56.7050   31.7010   -8.2000 N.am   35  PRO35      -0.2715
     71  CA        55.2620   31.5570   -8.0460 C.3    35  PRO35       0.1536
     72  C         54.8980   30.4310   -7.0830 C.2    35  PRO35       0.2598
     73  O         53.7270   30.1490   -6.8550 O.2    35  PRO35      -0.2715
     74  CB        54.7950   31.3070   -9.4810 C.3    35  PRO35       0.0310
     75  CG        55.9250   30.5180  -10.0450 C.3    35  PRO35       0.0237
     76  CD        57.1530   31.2280   -9.5250 C.3    35  PRO35       0.0939
     77  N         55.9150   29.7900   -6.5170 N.am   36  ARG36      -0.1978
     78  CA        55.7040   28.7000   -5.5660 C.3    36  ARG36       0.1597
     79  C         55.5470   29.2500   -4.1440 C.2    36  ARG36       0.2287
     80  O         56.3220   30.0930   -3.7180 O.2    36  ARG36      -0.2864
     81  CB        56.8860   27.7390   -5.6010 C.3    36  ARG36       0.0334
     82  CG        57.1680   27.1670   -6.9780 C.3    36  ARG36       0.0492
     83  CD        56.1880   26.0780   -7.3660 C.3    36  ARG36       0.2205
     84  NE        56.5490   25.5370   -8.6720 N.pl3  36  ARG36      -0.0865
     85  CZ        56.0920   25.9920   -9.8340 C.cat  36  ARG36       0.5346
     86  NH1       55.2320   26.9980   -9.8760 N.pl3  36  ARG36       0.1354
     87  NH2       56.5330   25.4640  -10.9650 N.pl3  36  ARG36       0.1354
     88  N         56.4700   28.9040   -1.1640 N.3    38  GLN38      -0.1231
     89  CA        57.4850   28.7260   -0.1220 C.3    38  GLN38       0.1698
     90  C         58.8610   29.0100   -0.7200 C.2    38  GLN38       0.2593
     91  O         59.7030   28.1340   -0.8250 O.2    38  GLN38      -0.2718
     92  CB        57.4660   27.3120    0.4540 C.3    38  GLN38       0.0381
     93  CG        58.2150   27.2160    1.7920 C.3    38  GLN38       0.0905
     94  CD        58.2010   25.8160    2.3780 C.2    38  GLN38       0.2608
     95  OE1       59.0830   25.0070    2.1040 O.2    38  GLN38      -0.2717
     96  NE2       57.1840   25.5230    3.1840 N.am   38  GLN38      -0.0878
     97  N         59.0840   30.2510   -1.1140 N.am   39  THR39      -0.1939
     98  CA        60.3500   30.6080   -1.7300 C.3    39  THR39       0.2028
     99  C         61.4080   31.0510   -0.7080 C.2    39  THR39       0.2642
    100  O         62.4430   30.4040   -0.5730 O.2    39  THR39      -0.2714
    101  CB        60.1060   31.6870   -2.8030 C.3    39  THR39       0.1808
    102  OG1       59.1300   31.1830   -3.7280 O.3    39  THR39      -0.2208
    103  CG2       61.3940   32.0150   -3.5800 C.3    39  THR39       0.0379
    104  N         61.1400   32.1270    0.0200 N.am   40  THR40      -0.1950
    105  CA        62.1030   32.6310    1.0090 C.3    40  THR40       0.1897
    106  C         62.1330   31.7030    2.2150 C.2    40  THR40       0.2313
    107  O         61.0860   31.2980    2.7030 O.2    40  THR40      -0.2863
    108  CB        61.7140   34.0440    1.4550 C.3    40  THR40       0.1794
    109  OG1       61.7510   34.9030    0.3140 O.3    40  THR40      -0.2208
    110  CG2       62.6840   34.5810    2.5290 C.3    40  THR40       0.0378
    111  N         61.2530   38.1620    5.0270 N.3    60  THR60      -0.1204
    112  CA        61.0740   36.9940    5.8540 C.3    60  THR60       0.1979
    113  C         60.3500   35.8870    5.1150 C.2    60  THR60       0.2460
    114  O         59.7080   36.1310    4.0850 O.2    60  THR60      -0.2732
    115  CB        60.2210   37.3400    7.1230 C.3    60  THR60       0.1783
    116  OG1       58.9110   37.7660    6.7200 O.3    60  THR60      -0.2211
    117  CG2       60.8890   38.4760    7.9470 C.3    60  THR60       0.0376
    118  N         60.4470   34.6560    5.6320 N.am   61  PRO61      -0.2717
    119  CA        59.7770   33.5070    5.0230 C.3    61  PRO61       0.1535
    120  C         58.2750   33.7180    5.2400 C.2    61  PRO61       0.2599
    121  O         57.8730   34.3460    6.2260 O.2    61  PRO61      -0.2715
    122  CB        60.2700   32.3090    5.8590 C.3    61  PRO61       0.0310
    123  CG        61.5620   32.7770    6.4620 C.3    61  PRO61       0.0237
    124  CD        61.3050   34.2390    6.7620 C.3    61  PRO61       0.0939
    125  N         57.4590   33.2020    4.3270 N.am   62  GLY62      -0.1955
    126  CA        56.0210   33.3060    4.4950 C.3    62  GLY62       0.1869
    127  C         55.5790   32.5390    5.7400 C.2    62  GLY62       0.2309
    128  O         55.9820   31.3910    5.9540 O.2    62  GLY62      -0.2863
    129  N         44.0920   39.6230   -4.6140 N.3    95  ARG95      -0.1245
    130  CA        43.3380   38.7930   -5.5520 C.3    95  ARG95       0.1563
    131  C         42.2810   37.9080   -4.9000 C.2    95  ARG95       0.2260
    132  O         41.3960   37.3870   -5.5740 O.2    95  ARG95      -0.2867
    133  CB        44.2950   37.8960   -6.3450 C.3    95  ARG95       0.0307
    134  CG        45.2820   38.6420   -7.2260 C.3    95  ARG95       0.0489
    135  CD        46.2170   37.6530   -7.8940 C.3    95  ARG95       0.2205
    136  NE        46.8450   36.7870   -6.9050 N.pl3  95  ARG95      -0.0865
    137  CZ        47.2510   35.5450   -7.1490 C.cat  95  ARG95       0.5346
    138  NH1       47.0950   35.0190   -8.3640 N.pl3  95  ARG95       0.1354
    139  NH2       47.7980   34.8220   -6.1790 N.pl3  95  ARG95       0.1354
    140  N         48.8280   43.8900   -1.9730 N.3   123  ASN123     -0.1225
    141  CA        49.6240   43.7970   -3.1850 C.3   123  ASN123      0.1785
    142  C         48.8660   43.1430   -4.3490 C.2   123  ASN123      0.2597
    143  O         47.8080   42.5530   -4.1580 O.2   123  ASN123     -0.2718
    144  CB        50.9040   43.0020   -2.8730 C.3   123  ASN123      0.1169
    145  CG        51.9250   43.0900   -3.9750 C.2   123  ASN123      0.2627
    146  OD1       52.0520   44.1240   -4.6430 O.2   123  ASN123     -0.2716
    147  ND2       52.6890   42.0120   -4.1590 N.am  123  ASN123     -0.0877
    148  N         49.4490   43.2430   -5.5390 N.am  124  LYS124     -0.1980
    149  CA        48.8950   42.6830   -6.7780 C.3   124  LYS124      0.1596
    150  C         47.5950   43.3580   -7.1930 C.2   124  LYS124      0.2287
    151  O         46.6850   42.7180   -7.7460 O.2   124  LYS124     -0.2864
    152  CB        48.6880   41.1750   -6.6460 C.3   124  LYS124      0.0298
    153  CG        49.9420   40.4220   -6.1680 C.3   124  LYS124      0.0038
    154  CD        49.7230   38.9060   -6.1770 C.3   124  LYS124      0.0206
    155  CE        50.9070   38.1700   -5.5570 C.3   124  LYS124      0.1093
    156  NZ        50.7010   36.7000   -5.6000 N.3   124  LYS124     -0.1314
    157  N         47.1200   45.1620   -9.5560 N.3   126  ASP126     -0.1225
    158  CA        47.0410   45.0130  -11.0080 C.3   126  ASP126      0.1805
    159  C         46.2690   43.7810  -11.4920 C.2   126  ASP126      0.2597
    160  O         45.7220   43.7770  -12.6040 O.2   126  ASP126     -0.2718
    161  CB        48.4460   44.9220  -11.5830 C.3   126  ASP126      0.1424
    162  CG        49.1910   43.6930  -11.0750 C.2   126  ASP126      0.3668
    163  OD1       49.4770   43.6460   -9.8660 O.co2 126  ASP126     -0.2456
    164  OD2       49.4640   42.7720  -11.8710 O.co2 126  ASP126     -0.2456
    165  N         46.2340   42.7350  -10.6770 N.am  127  ALA127     -0.1979
    166  CA        45.5740   41.4970  -11.0720 C.3   127  ALA127      0.1597
    167  C         44.3780   41.1130  -10.2250 C.2   127  ALA127      0.2287
    168  O         43.8260   40.0280  -10.3920 O.2   127  ALA127     -0.2864
    169  CB        46.5920   40.3540  -11.0540 C.3   127  ALA127      0.0319
    170  N         50.7260   47.6460   -6.3620 N.3   151  SER151     -0.1202
    171  CA        51.3410   46.5100   -7.0430 C.3   151  SER151      0.2020
    172  C         52.8060   46.7620   -6.7620 C.2   151  SER151      0.2619
    173  O         53.2870   47.8840   -6.9530 O.2   151  SER151     -0.2717
    174  CB        51.1330   46.5400   -8.5540 C.3   151  SER151      0.2103
    175  OG        52.0110   45.6080   -9.1800 O.3   151  SER151     -0.2182
    176  N         53.5090   45.7310   -6.3020 N.am  152  ALA152     -0.1965
    177  CA        54.9250   45.8560   -5.9910 C.3   152  ALA152      0.1728
    178  C         55.7010   46.1710   -7.2610 C.2   152  ALA152      0.2616
    179  O         56.8500   46.5980   -7.2090 O.2   152  ALA152     -0.2715
    180  CB        55.4380   44.5460   -5.3400 C.3   152  ALA152      0.0334
    181  N         55.0440   46.0000   -8.4030 N.am  153  LEU153     -0.1977
    182  CA        55.6550   46.2570   -9.7050 C.3   153  LEU153      0.1596
    183  C         55.4500   47.6900  -10.1960 C.2   153  LEU153      0.2287
    184  O         55.9970   48.0800  -11.2300 O.2   153  LEU153     -0.2864
    185  CB        55.0780   45.2800  -10.7290 C.3   153  LEU153      0.0297
    186  CG        55.2710   43.8120  -10.3330 C.3   153  LEU153      0.0022
    187  CD1       54.5480   42.9100  -11.3160 C.3   153  LEU153      0.0001
    188  CD2       56.7580   43.4920  -10.2900 C.3   153  LEU153      0.0001
@<TRIPOS>BOND
     1   160   159    2
     2   164   162   ar
     3   161   162    1
     4   161   158    1
     5   159   158    1
     6   159   165   am
     7   187   186    1
     8   184   183    2
     9   162   163   ar
    10   166   169    1
    11   166   165    1
    12   166   167    1
    13   158   157    1
    14    87    85    1
    15   185   186    1
    16   185   182    1
    17   168   167    2
    18   186   188    1
    19   183   182    1
    20    75    76    1
    21    75    74    1
    22    86    85    1
    23    85    84    2
    24   182   181    1
    25    76    70    1
    26    74    71    1
    27   175   174    1
    28    84    83    1
    29   174   171    1
    30   181   178   am
    31   138   137    1
    32    70    71    1
    33    70    66   am
    34    59    58    2
    35    71    72    1
    36   135   134    1
    37   135   136    1
    38   151   150    2
    39    62    60    1
    40    65    66    1
    41    65    68    1
    42    65    64    1
    43    83    82    1
    44    66    67    2
    45   178   179    2
    46   178   177    1
    47   134   133    1
    48    68    69    1
    49   150   149    1
    50   137   136    2
    51   137   139    1
    52    58    64   am
    53    58    57    1
    54    72    73    2
    55    72    77   am
    56   171   172    1
    57   171   170    1
    58    60    57    1
    59    60    61    1
    60    82    81    1
    61   173   172    2
    62    48    46    1
    63   149   152    1
    64   149   148    1
    65   172   176   am
    66    63    61    1
    67   152   153    1
    68    77    78    1
    69   133   130    1
    70    57    56    1
    71   176   177    1
    72    47    46    1
    73   154   153    1
    74   154   155    1
    75    56    51   am
    76   177   180    1
    77    46    43    1
    78    81    78    1
    79   156   155    1
    80   132   131    2
    81    78    79    1
    82   130   131    1
    83   130   129    1
    84   148   142   am
    85    45    44    2
    86    43    44    1
    87    43    42    1
    88    51    50    1
    89    51    52    2
    90    50    53    1
    91    50    49    1
    92   146   145    2
    93    15    13   am
    94    14    13    2
    95   142   143    2
    96   142   141    1
    97    53    54    1
    98   147   145   am
    99    79    80    2
   100    13    12    1
   101   145   144    1
   102    49    55    1
   103    42    38   am
   104   102   101    1
   105   103   101    1
   106    11    10    2
   107    39    38    2
   108   141   144    1
   109   141   140    1
   110    38    37    1
   111    24    23    1
   112    24    25    1
   113   101    98    1
   114    54    55    1
   115    12     9    1
   116    19    18    2
   117    26    25    2
   118    10     9    1
   119    10    16   am
   120    23    18   am
   121     9     8    1
   122    40    37    1
   123    40    41    1
   124    18    17    1
   125    25    27   am
   126    37    36    1
   127    98    97    1
   128    98    99    1
   129    17    16    1
   130    17    20    1
   131    36    29   am
   132    88    89    1
   133    97    90   am
   134    27    28    1
   135     8     3   am
   136    91    90    2
   137    90    89    1
   138    99   100    2
   139    99   104   am
   140    29    30    2
   141    29    28    1
   142    89    92    1
   143    20    21    1
   144    20    22    1
   145    28    31    1
   146     4     3    2
   147   104   105    1
   148     3     2    1
   149   109   108    1
   150    92    93    1
   151   105   108    1
   152   105   106    1
   153    31    32    1
   154     5     2    1
   155     5     6    1
   156     2     1    1
   157   108   110    1
   158    93    94    1
   159    32    33    1
   160    95    94    2
   161   106   107    2
   162    35    34    1
   163    94    96   am
   164     1     7    1
   165     6     7    1
   166    34    33    1
   167   114   113    2
   168   125   126    1
   169   125   120   am
   170   126   127    1
   171   119   120    1
   172   119   118    1
   173   119   122    1
   174   111   112    1
   175   113   118   am
   176   113   112    1
   177   120   121    2
   178   118   124    1
   179   127   128    2
   180   112   115    1
   181   122   123    1
   182   123   124    1
   183   116   115    1
   184   115   117    1
