@<TRIPOS>MOLECULE
tmp/1wg8A00.pdb
 210 200 0 0 0
SMALL
GASTEIGER

@<TRIPOS>ATOM
      1  N         44.5450   77.9850   14.1800 N.3     5  PRO5       -0.2116
      2  CA        45.7990   77.6940   13.4770 C.3     5  PRO5        0.1372
      3  C         46.0760   76.1910   13.5610 C.2     5  PRO5        0.2244
      4  O         45.7640   75.5540   14.5690 O.2     5  PRO5       -0.2868
      5  CB        46.8340   78.5140   14.2570 C.3     5  PRO5        0.0268
      6  CG        46.0190   79.6580   14.8190 C.3     5  PRO5        0.0207
      7  CD        44.7560   78.9610   15.2650 C.3     5  PRO5        0.0892
      8  N         58.3220   84.0660   14.1840 N.3    25  ASP25      -0.1225
      9  CA        57.2120   83.3680   13.5410 C.3    25  ASP25       0.1805
     10  C         57.5730   83.7080   12.0990 C.2    25  ASP25       0.2598
     11  O         57.2820   84.7960   11.6020 O.2    25  ASP25      -0.2718
     12  CB        55.8620   83.9760   13.9120 C.3    25  ASP25       0.1424
     13  CG        54.6970   83.2250   13.2830 C.2    25  ASP25       0.3668
     14  OD1       54.8610   82.6740   12.1810 O.co2  25  ASP25      -0.2456
     15  OD2       53.6030   83.1980   13.8770 O.co2  25  ASP25      -0.2456
     16  N         58.2640   82.7820   11.4440 N.am   26  ALA26      -0.1966
     17  CA        58.7400   83.0000   10.0890 C.3    26  ALA26       0.1728
     18  C         57.6680   83.0410    8.9790 C.2    26  ALA26       0.2617
     19  O         57.9490   83.4020    7.8380 O.2    26  ALA26      -0.2715
     20  CB        59.8020   81.9360    9.7850 C.3    26  ALA26       0.0334
     21  N         56.4340   82.6940    9.3260 N.am   27  THR27      -0.1937
     22  CA        55.3260   82.6490    8.3610 C.3    27  THR27       0.2028
     23  C         54.1190   83.2250    9.0880 C.2    27  THR27       0.2642
     24  O         53.1380   82.5270    9.3240 O.2    27  THR27      -0.2714
     25  CB        55.0370   81.1830    7.9940 C.3    27  THR27       0.1808
     26  OG1       55.0260   80.4050    9.2000 O.3    27  THR27      -0.2208
     27  CG2       56.1460   80.6310    7.0870 C.3    27  THR27       0.0379
     28  N         54.2130   84.5030    9.4480 N.am   28  LEU28      -0.1963
     29  CA        53.1760   85.1890   10.2380 C.3    28  LEU28       0.1728
     30  C         51.7220   84.9850    9.8120 C.2    28  LEU28       0.2617
     31  O         50.8640   84.6940   10.6510 O.2    28  LEU28      -0.2715
     32  CB        53.4860   86.6960   10.3080 C.3    28  LEU28       0.0311
     33  CG        52.6570   87.5390   11.2840 C.3    28  LEU28       0.0022
     34  CD1       52.8150   87.0280   12.6990 C.3    28  LEU28       0.0001
     35  CD2       53.1240   88.9920   11.2000 C.3    28  LEU28       0.0001
     36  N         51.4430   85.1460    8.5230 N.am   29  GLY29      -0.1940
     37  CA        50.0870   84.9520    8.0270 C.3    29  GLY29       0.2014
     38  C         49.0670   85.8510    8.7000 C.2    29  GLY29       0.2639
     39  O         49.2060   87.0550    8.6610 O.2    29  GLY29      -0.2714
     40  N         48.0510   85.2600    9.3170 N.am   30  GLY30      -0.1954
     41  CA        47.0450   86.0510    9.9980 C.3    30  GLY30       0.1869
     42  C         47.3950   86.2060   11.4650 C.2    30  GLY30       0.2309
     43  O         46.5880   86.6810   12.2480 O.2    30  GLY30      -0.2863
     44  N         47.8220   83.8460   13.7190 N.3    32  GLY32      -0.1210
     45  CA        47.1630   82.9150   14.6230 C.3    32  GLY32       0.1956
     46  C         48.1150   82.3250   15.6520 C.2    32  GLY32       0.2611
     47  O         47.8380   82.3710   16.8420 O.2    32  GLY32      -0.2717
     48  N         49.2420   81.7630   15.2130 N.am   33  HIS33      -0.1975
     49  CA        50.1870   81.2000   16.1630 C.3    33  HIS33       0.1656
     50  C         50.8790   82.3080   16.9520 C.2    33  HIS33       0.2291
     51  O         51.1590   82.1640   18.1470 O.2    33  HIS33      -0.2864
     52  CB        51.2610   80.3560   15.4500 C.3    33  HIS33       0.0771
     53  CG        50.7490   79.0720   14.8740 C.ar   33  HIS33       0.0820
     54  ND1       50.5060   78.9020   13.5270 N.ar   33  HIS33      -0.2267
     55  CD2       50.5160   77.8700   15.4510 C.ar   33  HIS33       0.1154
     56  CE1       50.1550   77.6480   13.2990 C.ar   33  HIS33       0.1986
     57  NE2       50.1590   77.0000   14.4490 N.ar   33  HIS33      -0.2212
     58  N         57.6610   87.3980   10.2500 N.3    47  LEU47      -0.1231
     59  CA        57.9710   87.7090    8.8650 C.3    47  LEU47       0.1693
     60  C         56.8970   87.1790    7.9390 C.2    47  LEU47       0.2592
     61  O         56.2830   86.1510    8.2150 O.2    47  LEU47      -0.2718
     62  CB        59.2730   87.0390    8.4050 C.3    47  LEU47       0.0284
     63  CG        60.6120   86.9820    9.1180 C.3    47  LEU47       0.0019
     64  CD1       61.6740   86.5220    8.0570 C.3    47  LEU47       0.0001
     65  CD2       60.9800   88.3160    9.6830 C.3    47  LEU47       0.0001
     66  N         56.6890   87.8770    6.8310 N.am   48  ASP48      -0.1960
     67  CA        55.7770   87.4030    5.8060 C.3    48  ASP48       0.1840
     68  C         56.1080   88.1500    4.5410 C.2    48  ASP48       0.2622
     69  O         56.3740   89.3490    4.5700 O.2    48  ASP48      -0.2715
     70  CB        54.2970   87.5890    6.1720 C.3    48  ASP48       0.1450
     71  CG        53.4170   86.5430    5.5050 C.2    48  ASP48       0.3671
     72  OD1       53.3830   86.5150    4.2630 O.co2  48  ASP48      -0.2456
     73  OD2       52.7760   85.7390    6.2100 O.co2  48  ASP48      -0.2456
     74  N         56.1350   87.4360    3.4200 N.am   49  GLN49      -0.1963
     75  CA        56.4580   88.0830    2.1640 C.3    49  GLN49       0.1733
     76  C         55.2030   88.5840    1.4590 C.2    49  GLN49       0.2616
     77  O         55.2990   89.3630    0.5190 O.2    49  GLN49      -0.2715
     78  CB        57.2260   87.1110    1.2500 C.3    49  GLN49       0.0408
     79  CG        56.3850   85.9230    0.7350 C.3    49  GLN49       0.0908
     80  CD        57.1900   85.0230   -0.2100 C.2    49  GLN49       0.2608
     81  OE1       57.8450   85.5080   -1.1310 O.2    49  GLN49      -0.2717
     82  NE2       57.1370   83.7160    0.0160 N.am   49  GLN49      -0.0878
     83  N         54.0290   88.1360    1.8980 N.am   50  ASP50      -0.1971
     84  CA        52.7840   88.5640    1.2580 C.3    50  ASP50       0.1709
     85  C         52.3970   89.9510    1.7600 C.2    50  ASP50       0.2293
     86  O         52.0510   90.1240    2.9310 O.2    50  ASP50      -0.2864
     87  CB        51.6410   87.5790    1.5620 C.3    50  ASP50       0.1436
     88  CG        50.2890   88.0340    0.9750 C.2    50  ASP50       0.3671
     89  OD1       49.2320   87.4470    1.3310 O.co2  50  ASP50      -0.2456
     90  OD2       50.2760   88.9780    0.1700 O.co2  50  ASP50      -0.2456
     91  N         49.3150   90.0960    3.8520 N.3    53  ALA53      -0.1245
     92  CA        49.4050   89.5540    5.2040 C.3    53  ALA53       0.1562
     93  C         50.1200   90.5900    6.0820 C.2    53  ALA53       0.2260
     94  O         49.7330   90.8380    7.2260 O.2    53  ALA53      -0.2867
     95  CB        50.1770   88.2250    5.1990 C.3    53  ALA53       0.0290
     96  N         59.1000   90.4130    4.2870 N.3    70  GLY70      -0.1210
     97  CA        60.2930   89.8490    3.6760 C.3    70  GLY70       0.1956
     98  C         60.2680   88.3490    3.5760 C.2    70  GLY70       0.2612
     99  O         59.3440   87.7120    4.0850 O.2    70  GLY70      -0.2717
    100  N         61.2860   87.7820    2.9290 N.am   71  ASN71      -0.1960
    101  CA        61.3650   86.3270    2.7410 C.3    71  ASN71       0.1819
    102  C         62.1820   85.6590    3.8360 C.2    71  ASN71       0.2621
    103  O         63.2860   86.1040    4.1740 O.2    71  ASN71      -0.2715
    104  CB        61.9680   86.0170    1.3650 C.3    71  ASN71       0.1195
    105  CG        61.7510   84.5810    0.9460 C.2    71  ASN71       0.2630
    106  OD1       62.2660   83.6500    1.5690 O.2    71  ASN71      -0.2716
    107  ND2       60.9670   84.3910   -0.1020 N.am   71  ASN71      -0.0877
    108  N         61.6710   84.5710    4.3910 N.am   72  PHE72      -0.1974
    109  CA        62.4180   83.9400    5.4690 C.3    72  PHE72       0.1639
    110  C         63.7700   83.3640    5.0590 C.2    72  PHE72       0.2290
    111  O         64.5570   82.9340    5.9010 O.2    72  PHE72      -0.2864
    112  CB        61.5460   82.9150    6.2430 C.3    72  PHE72       0.0560
    113  CG        60.9800   81.7650    5.4160 C.ar   72  PHE72      -0.0200
    114  CD1       61.7410   81.1070    4.4600 C.ar   72  PHE72      -0.0042
    115  CD2       59.6990   81.2760    5.6960 C.ar   72  PHE72      -0.0042
    116  CE1       61.2370   79.9670    3.7960 C.ar   72  PHE72      -0.0003
    117  CE2       59.1830   80.1380    5.0370 C.ar   72  PHE72      -0.0003
    118  CZ        59.9490   79.4840    4.0930 C.ar   72  PHE72      -0.0000
    119  N         59.3310   79.3670   14.6180 N.3    91  LEU91      -0.1245
    120  CA        58.2090   78.6110   14.0620 C.3    91  LEU91       0.1561
    121  C         57.9830   78.9310   12.5830 C.2    91  LEU91       0.2260
    122  O         58.1490   80.0740   12.1530 O.2    91  LEU91      -0.2867
    123  CB        56.9250   78.9410   14.8420 C.3    91  LEU91       0.0270
    124  CG        55.6260   78.4300   14.2160 C.3    91  LEU91       0.0019
    125  CD1       55.5960   76.9050   14.3480 C.3    91  LEU91       0.0001
    126  CD2       54.4170   79.0630   14.9160 C.3    91  LEU91       0.0001
    127  N         55.0200   77.7470    9.6030 N.3    93  ASP93      -0.1225
    128  CA        53.7860   77.0220    9.2390 C.3    93  ASP93       0.1805
    129  C         53.7310   77.3300    7.7450 C.2    93  ASP93       0.2598
    130  O         53.2270   78.3650    7.3250 O.2    93  ASP93      -0.2718
    131  CB        52.6020   77.6290   10.0440 C.3    93  ASP93       0.1424
    132  CG        51.2420   77.2010    9.5310 C.2    93  ASP93       0.3668
    133  OD1       51.1500   76.1500    8.8720 O.co2  93  ASP93      -0.2456
    134  OD2       50.2580   77.9230    9.7970 O.co2  93  ASP93      -0.2456
    135  N         54.2830   76.4170    6.9470 N.am   94  LEU94      -0.1966
    136  CA        54.4350   76.6100    5.5030 C.3    94  LEU94       0.1728
    137  C         53.1620   76.6490    4.6640 C.2    94  LEU94       0.2617
    138  O         52.1330   76.0820    5.0290 O.2    94  LEU94      -0.2715
    139  CB        55.4010   75.5450    4.9430 C.3    94  LEU94       0.0311
    140  CG        56.7600   75.3710    5.6570 C.3    94  LEU94       0.0022
    141  CD1       57.4860   74.0940    5.1450 C.3    94  LEU94       0.0001
    142  CD2       57.6240   76.6270    5.4380 C.3    94  LEU94       0.0001
    143  N         53.2440   77.3450    3.5410 N.am   95  GLY95      -0.1940
    144  CA        52.1000   77.4490    2.6520 C.3    95  GLY95       0.2014
    145  C         51.7450   78.8760    2.2990 C.2    95  GLY95       0.2639
    146  O         52.4820   79.8090    2.6010 O.2    95  GLY95      -0.2714
    147  N         50.5950   79.0370    1.6580 N.am   96  VAL96      -0.1963
    148  CA        50.0870   80.3390    1.2450 C.3    96  VAL96       0.1727
    149  C         49.1940   80.9170    2.3620 C.2    96  VAL96       0.2616
    150  O         48.8030   80.2160    3.2810 O.2    96  VAL96      -0.2715
    151  CB        49.2300   80.1830   -0.0150 C.3    96  VAL96       0.0290
    152  CG1       50.0750   79.6180   -1.1560 C.3    96  VAL96       0.0023
    153  CG2       48.0590   79.2170    0.2830 C.3    96  VAL96       0.0023
    154  N         48.8950   82.2030    2.2800 N.am   97  SER97      -0.1950
    155  CA        48.0400   82.8540    3.2610 C.3    97  SER97       0.1924
    156  C         46.5610   82.6920    2.8950 C.2    97  SER97       0.2314
    157  O         46.2020   82.1340    1.8440 O.2    97  SER97      -0.2863
    158  CB        48.3730   84.3490    3.3260 C.3    97  SER97       0.2116
    159  OG        48.1580   84.9560    2.0660 O.3    97  SER97      -0.2180
    160  N         45.8520   84.3500   -0.3000 N.3   100  HIS100     -0.1241
    161  CA        46.3380   83.5700   -1.4200 C.3   100  HIS100      0.1621
    162  C         45.2650   82.5820   -1.8890 C.2   100  HIS100      0.2264
    163  O         45.0390   82.3940   -3.0850 O.2   100  HIS100     -0.2867
    164  CB        47.5940   82.8000   -0.9920 C.3   100  HIS100      0.0745
    165  CG        48.7820   83.6720   -0.7100 C.ar  100  HIS100      0.0817
    166  ND1       49.7740   83.3100    0.1740 N.ar  100  HIS100     -0.2268
    167  CD2       49.1580   84.8640   -1.2280 C.ar  100  HIS100      0.1154
    168  CE1       50.7110   84.2400    0.1920 C.ar  100  HIS100      0.1986
    169  NE2       50.3620   85.1950   -0.6520 N.ar  100  HIS100     -0.2212
    170  N         53.7450   84.6140   -3.9720 N.3   120  MET120     -0.1245
    171  CA        53.2470   84.9180   -2.6290 C.3   120  MET120      0.1570
    172  C         53.6390   86.3430   -2.3140 C.2   120  MET120      0.2261
    173  O         52.9230   87.0610   -1.6090 O.2   120  MET120     -0.2867
    174  CB        53.8690   83.9900   -1.5960 C.3   120  MET120      0.0387
    175  CG        53.3360   82.5750   -1.7130 C.3   120  MET120      0.0595
    176  SD        53.9200   81.5240   -0.3950 S.3   120  MET120     -0.1393
    177  CE        55.4660   80.9680   -1.1580 C.3   120  MET120      0.0692
    178  N         57.9950   80.7120   -6.6320 N.3   203  ASN203     -0.1240
    179  CA        58.4150   81.2280   -5.3300 C.3   203  ASN203      0.1653
    180  C         59.7200   80.6310   -4.8090 C.2   203  ASN203      0.2266
    181  O         60.1190   80.9040   -3.6680 O.2   203  ASN203     -0.2867
    182  CB        57.3080   80.9310   -4.3260 C.3   203  ASN203      0.1155
    183  CG        56.0580   81.7110   -4.6120 C.2   203  ASN203      0.2627
    184  OD1       56.0150   82.9130   -4.3750 O.2   203  ASN203     -0.2716
    185  ND2       55.0350   81.0400   -5.1440 N.am  203  ASN203     -0.0877
    186  N         60.3700   77.9340   -3.5710 N.3   205  GLU205     -0.1245
    187  CA        60.0670   77.4790   -2.2120 C.3   205  GLU205      0.1567
    188  C         61.0270   76.5350   -1.5220 C.2   205  GLU205      0.2260
    189  O         61.2680   76.6610   -0.3220 O.2   205  GLU205     -0.2867
    190  CB        58.6600   76.8430   -2.1550 C.3   205  GLU205      0.0388
    191  CG        57.5130   77.8210   -2.4020 C.3   205  GLU205      0.1160
    192  CD        56.1420   77.1980   -2.1470 C.2   205  GLU205      0.3649
    193  OE1       56.0590   76.2350   -1.3620 O.co2 205  GLU205     -0.2457
    194  OE2       55.1460   77.6990   -2.7030 O.co2 205  GLU205     -0.2457
    195  N         64.4070   78.3960   -0.7850 N.3   208  ALA208     -0.1245
    196  CA        64.1600   79.3910    0.2630 C.3   208  ALA208      0.1562
    197  C         64.0760   78.6510    1.6010 C.2   208  ALA208      0.2260
    198  O         64.6170   79.1120    2.6150 O.2   208  ALA208     -0.2867
    199  CB        62.8370   80.1450    0.0040 C.3   208  ALA208      0.0290
    200  N         42.6220   71.9960    5.3840 N.3   268  ARG268     -0.1245
    201  CA        44.0070   72.3670    5.1300 C.3   268  ARG268      0.1563
    202  C         44.9300   71.6310    6.0860 C.2   268  ARG268      0.2260
    203  O         46.0560   71.2880    5.7470 O.2   268  ARG268     -0.2867
    204  CB        44.1900   73.8740    5.3120 C.3   268  ARG268      0.0307
    205  CG        45.6040   74.3580    5.0360 C.3   268  ARG268      0.0489
    206  CD        45.8870   75.6560    5.7710 C.3   268  ARG268      0.2205
    207  NE        47.2220   75.6190    6.3450 N.pl3 268  ARG268     -0.0865
    208  CZ        47.6550   76.4070    7.3230 C.cat 268  ARG268      0.5346
    209  NH1       46.8640   77.3280    7.8700 N.pl3 268  ARG268      0.1354
    210  NH2       48.8900   76.2590    7.7610 N.pl3 268  ARG268      0.1354
@<TRIPOS>BOND
     1   178   179    1
     2   179   180    1
     3   179   182    1
     4   185   183   am
     5   180   181    2
     6   183   184    2
     7   183   182    1
     8   170   171    1
     9   186   187    1
    10   163   162    2
    11   194   192   ar
    12   171   172    1
    13   171   174    1
    14   191   190    1
    15   191   192    1
    16   172   173    2
    17   187   190    1
    18   187   188    1
    19   192   193   ar
    20   162   161    1
    21   175   174    1
    22   175   176    1
    23   188   189    2
    24   161   164    1
    25   161   160    1
    26   167   165   ar
    27   167   169   ar
    28   177   176    1
    29   152   151    1
    30    81    80    2
    31   164   165    1
    32   195   196    1
    33   165   166   ar
    34   169   168   ar
    35    80    82   am
    36    80    79    1
    37   107   105   am
    38   151   153    1
    39   151   148    1
    40   199   196    1
    41    90    88   ar
    42   166   168   ar
    43   196   197    1
    44    77    76    2
    45    79    78    1
    46   105   104    1
    47   105   106    2
    48    88    89   ar
    49    88    87    1
    50   148   147    1
    51   148   149    1
    52    78    75    1
    53    84    87    1
    54    84    85    1
    55    84    83    1
    56   104   101    1
    57    76    83   am
    58    76    75    1
    59   197   198    2
    60   147   145   am
    61    85    86    2
    62   157   156    2
    63   159   158    1
    64    75    74    1
    65   154   149   am
    66   154   155    1
    67   145   146    2
    68   145   144    1
    69   149   150    2
    70   144   143    1
    71   101   100    1
    72   101   102    1
    73   156   155    1
    74   100    98   am
    75   155   158    1
    76    74    68   am
    77   143   137   am
    78    98    97    1
    79    98    99    2
    80    97    96    1
    81   116   118   ar
    82   116   114   ar
    83   102   103    2
    84   102   108   am
    85    91    92    1
    86   118   117   ar
    87    72    71   ar
    88   108   109    1
    89   114   113   ar
    90    68    69    2
    91    68    67    1
    92   137   138    2
    93   137   136    1
    94   139   136    1
    95   139   140    1
    96   205   204    1
    97   205   206    1
    98   117   115   ar
    99   110   109    1
   100   110   111    2
   101   201   204    1
   102   201   200    1
   103   201   202    1
   104   141   140    1
   105    95    92    1
   106    92    93    1
   107   113   115   ar
   108   113   112    1
   109   142   140    1
   110   109   112    1
   111   136   135    1
   112    71    70    1
   113    71    73   ar
   114   203   202    2
   115   206   207    1
   116    67    70    1
   117    67    66    1
   118    93    94    2
   119   207   208    2
   120    66    60   am
   121   135   129   am
   122    27    25    1
   123   208   210    1
   124   208   209    1
   125   130   129    2
   126   129   128    1
   127    19    18    2
   128    60    61    2
   129    60    59    1
   130    25    22    1
   131    25    26    1
   132    37    36    1
   133    37    38    1
   134    64    63    1
   135    22    23    1
   136    22    21    1
   137    62    59    1
   138    62    63    1
   139    36    30   am
   140    39    38    2
   141    38    40   am
   142    59    58    1
   143   133   132   ar
   144    18    21   am
   145    18    17    1
   146    23    24    2
   147    23    28   am
   148    63    65    1
   149   128   127    1
   150   128   131    1
   151    40    41    1
   152    28    29    1
   153   132   134   ar
   154   132   131    1
   155    20    17    1
   156    30    29    1
   157    30    31    2
   158    41    42    1
   159    17    16    1
   160    29    32    1
   161    32    33    1
   162    35    33    1
   163    33    34    1
   164    16    10   am
   165    42    43    2
   166    11    10    2
   167    10     9    1
   168   122   121    2
   169    14    13   ar
   170   121   120    1
   171    13    15   ar
   172    13    12    1
   173    56    54   ar
   174    56    57   ar
   175     2     3    1
   176     2     1    1
   177     2     5    1
   178    54    53   ar
   179     9    12    1
   180     9     8    1
   181     3     4    2
   182    44    45    1
   183   120   119    1
   184   120   123    1
   185     1     7    1
   186   124   125    1
   187   124   123    1
   188   124   126    1
   189     5     6    1
   190    57    55   ar
   191    45    46    1
   192     6     7    1
   193    53    52    1
   194    53    55   ar
   195    48    46   am
   196    48    49    1
   197    52    49    1
   198    46    47    2
   199    49    50    1
   200    50    51    2
