@<TRIPOS>MOLECULE
tmp/1whsB00.pdb
 89 86 0 0 0
SMALL
GASTEIGER

@<TRIPOS>ATOM
      1  N         56.8970   48.8740   81.6690 N.3    15  ASN15      -0.1240
      2  CA        57.5030   49.7800   82.6270 C.3    15  ASN15       0.1653
      3  C         56.4960   50.7060   83.3280 C.2    15  ASN15       0.2266
      4  O         56.8290   51.3240   84.3400 O.2    15  ASN15      -0.2867
      5  CB        58.7670   50.4870   82.1240 C.3    15  ASN15       0.1155
      6  CG        59.9610   49.5800   82.2770 C.2    15  ASN15       0.2627
      7  OD1       60.4970   49.4420   83.3810 O.2    15  ASN15      -0.2716
      8  ND2       60.3110   48.8790   81.2010 N.am   15  ASN15      -0.0877
      9  N         53.5710   52.0530   85.6520 N.3    17  ARG17      -0.1245
     10  CA        53.1950   51.6670   87.0160 C.3    17  ARG17       0.1563
     11  C         51.7550   51.1130   87.1170 C.2    17  ARG17       0.2260
     12  O         51.4650   50.2390   87.9250 O.2    17  ARG17      -0.2867
     13  CB        53.6790   52.6070   88.1400 C.3    17  ARG17       0.0307
     14  CG        55.1740   52.7200   88.2190 C.3    17  ARG17       0.0489
     15  CD        55.7870   51.7010   89.1520 C.3    17  ARG17       0.2205
     16  NE        55.7800   52.1290   90.5460 N.pl3  17  ARG17      -0.0865
     17  CZ        55.2280   51.4290   91.5280 C.cat  17  ARG17       0.5346
     18  NH1       54.6320   50.2870   91.2400 N.pl3  17  ARG17       0.1354
     19  NH2       55.2980   51.8430   92.7920 N.pl3  17  ARG17       0.1354
     20  N         51.9420   47.4090   85.8980 N.3    20  GLN20      -0.1245
     21  CA        52.5350   46.5960   86.9300 C.3    20  GLN20       0.1566
     22  C         51.5250   46.3530   88.0200 C.2    20  GLN20       0.2260
     23  O         51.4620   45.2980   88.6440 O.2    20  GLN20      -0.2867
     24  CB        53.7240   47.2690   87.6020 C.3    20  GLN20       0.0367
     25  CG        54.6710   47.9170   86.6040 C.3    20  GLN20       0.0905
     26  CD        56.0450   48.1410   87.1900 C.2    20  GLN20       0.2608
     27  OE1       56.1950   48.3570   88.4100 O.2    20  GLN20      -0.2717
     28  NE2       57.0590   48.1110   86.3210 N.am   20  GLN20      -0.0878
     29  N         55.6920   43.9400   90.9640 N.3    26  ASN26      -0.1240
     30  CA        56.4770   44.8720   91.7090 C.3    26  ASN26       0.1653
     31  C         55.5690   45.5960   92.6980 C.2    26  ASN26       0.2266
     32  O         55.3460   46.8340   92.6460 O.2    26  ASN26      -0.2867
     33  CB        57.1790   45.8180   90.7630 C.3    26  ASN26       0.1155
     34  CG        57.8940   46.8490   91.5580 C.2    26  ASN26       0.2627
     35  OD1       59.0430   46.6690   91.9790 O.2    26  ASN26      -0.2716
     36  ND2       57.2780   48.0190   91.6110 N.am   26  ASN26      -0.0877
     37  N         57.2480   48.1270   95.0090 N.3    29  GLY29      -0.1225
     38  CA        58.0430   49.1690   94.3580 C.3    29  GLY29       0.1811
     39  C         59.5460   48.9480   94.5740 C.2    29  GLY29       0.2280
     40  O         60.3770   49.7870   94.2230 O.2    29  GLY29      -0.2866
     41  N         61.6140   46.4970   93.2620 N.3    31  MET31      -0.1230
     42  CA        62.3950   46.2600   92.0670 C.3    31  MET31       0.1702
     43  C         62.8160   47.6260   91.5590 C.2    31  MET31       0.2592
     44  O         62.0060   48.3180   90.9870 O.2    31  MET31      -0.2718
     45  CB        61.6300   45.3610   91.0490 C.3    31  MET31       0.0401
     46  CG        60.8810   44.2000   91.7200 C.3    31  MET31       0.0596
     47  SD        60.3490   42.8090   90.6480 S.3    31  MET31      -0.1393
     48  CE        59.5330   43.6840   89.2780 C.3    31  MET31       0.0692
     49  N         64.0500   48.0160   91.9190 N.am   32  ASN32      -0.1960
     50  CA        64.6840   49.3140   91.6450 C.3    32  ASN32       0.1819
     51  C         65.5100   49.2910   90.3740 C.2    32  ASN32       0.2621
     52  O         66.6000   49.8670   90.2790 O.2    32  ASN32      -0.2715
     53  CB        65.6410   49.6620   92.8010 C.3    32  ASN32       0.1195
     54  CG        66.4350   48.4220   93.2210 C.2    32  ASN32       0.2630
     55  OD1       66.2850   47.3370   92.6200 O.2    32  ASN32      -0.2716
     56  ND2       67.2860   48.5580   94.2470 N.am   32  ASN32      -0.0877
     57  N         64.9610   48.5890   89.4130 N.am   33  TYR33      -0.1960
     58  CA        65.5500   48.4360   88.1160 C.3    33  TYR33       0.1771
     59  C         64.4200   48.3770   87.1070 C.2    33  TYR33       0.2620
     60  O         63.3050   47.9610   87.4020 O.2    33  TYR33      -0.2715
     61  CB        66.4700   47.2060   88.0510 C.3    33  TYR33       0.0574
     62  CG        65.7270   45.9710   88.4770 C.ar   33  TYR33      -0.0198
     63  CD1       64.8460   45.3490   87.5900 C.ar   33  TYR33      -0.0009
     64  CD2       65.8630   45.4500   89.7650 C.ar   33  TYR33      -0.0009
     65  CE1       64.1270   44.2130   87.9630 C.ar   33  TYR33       0.0417
     66  CE2       65.1510   44.3150   90.1610 C.ar   33  TYR33       0.0417
     67  CZ        64.2860   43.6990   89.2510 C.ar   33  TYR33       0.1957
     68  OH        63.5870   42.5730   89.6090 O.3    33  TYR33      -0.2866
     69  N         64.7030   48.8460   85.9200 N.am   34  THR34      -0.1937
     70  CA        63.7090   48.8560   84.9000 C.3    34  THR34       0.2028
     71  C         63.4420   47.4440   84.3710 C.2    34  THR34       0.2642
     72  O         64.3320   46.5950   84.3360 O.2    34  THR34      -0.2714
     73  CB        64.1580   49.8640   83.8240 C.3    34  THR34       0.1808
     74  OG1       63.7120   51.1430   84.2050 O.3    34  THR34      -0.2208
     75  CG2       63.5800   49.5080   82.4620 C.3    34  THR34       0.0379
     76  N         62.1900   47.1920   83.9990 N.am   35  TRP35      -0.1973
     77  CA        61.8140   45.9290   83.3980 C.3    35  TRP35       0.1640
     78  C         62.4340   45.8480   81.9900 C.2    35  TRP35       0.2290
     79  O         62.3580   46.8090   81.2120 O.2    35  TRP35      -0.2864
     80  CB        60.2950   45.8830   83.2010 C.3    35  TRP35       0.0576
     81  CG        59.8270   44.6490   82.5030 C.ar   35  TRP35       0.0006
     82  CD1       59.5150   43.4860   83.1160 C.ar   35  TRP35       0.0946
     83  CD2       59.5840   44.4360   81.0960 C.ar   35  TRP35       0.0152
     84  NE1       59.0390   42.5700   82.2140 N.ar   35  TRP35      -0.2442
     85  CE2       59.1080   43.1080   80.9660 C.ar   35  TRP35       0.0810
     86  CE3       59.7010   45.2130   79.9340 C.ar   35  TRP35       0.0012
     87  CZ2       58.7560   42.5710   79.7320 C.ar   35  TRP35       0.0191
     88  CZ3       59.3610   44.6610   78.7070 C.ar   35  TRP35       0.0001
     89  CH2       58.8890   43.3570   78.6130 C.ar   35  TRP35       0.0015
@<TRIPOS>BOND
     1    89    88   ar
     2    89    87   ar
     3    88    86   ar
     4    87    85   ar
     5    86    83   ar
     6    85    83   ar
     7    85    84   ar
     8    83    81   ar
     9     8     6   am
    10    79    78    2
    11     1     2    1
    12    78    77    1
    13     5     6    1
    14     5     2    1
    15    84    82   ar
    16     6     7    2
    17    75    73    1
    18    81    82   ar
    19    81    80    1
    20     2     3    1
    21    80    77    1
    22     3     4    2
    23    77    76    1
    24    73    74    1
    25    73    70    1
    26    76    71   am
    27    72    71    2
    28    71    70    1
    29    70    69    1
    30     9    10    1
    31    20    21    1
    32    69    59   am
    33    28    26   am
    34    25    26    1
    35    25    24    1
    36    21    24    1
    37    21    22    1
    38    10    11    1
    39    10    13    1
    40    59    60    2
    41    59    58    1
    42    11    12    2
    43    26    27    2
    44    63    65   ar
    45    63    62   ar
    46    65    67   ar
    47    22    23    2
    48    61    58    1
    49    61    62    1
    50    58    57    1
    51    13    14    1
    52    14    15    1
    53    62    64   ar
    54    15    16    1
    55    67    68    1
    56    67    66   ar
    57    48    47    1
    58    57    51   am
    59    64    66   ar
    60    52    51    2
    61    51    50    1
    62    16    17    2
    63    47    46    1
    64    33    34    1
    65    33    30    1
    66    29    30    1
    67    44    43    2
    68    45    46    1
    69    45    42    1
    70    18    17    1
    71    17    19    1
    72    34    36   am
    73    34    35    2
    74    43    49   am
    75    43    42    1
    76    50    49    1
    77    50    53    1
    78    30    31    1
    79    42    41    1
    80    55    54    2
    81    32    31    2
    82    53    54    1
    83    54    56   am
    84    40    39    2
    85    38    39    1
    86    38    37    1
