@<TRIPOS>MOLECULE
tmp/1whtA02.pdb
 91 88 0 0 0
SMALL
GASTEIGER

@<TRIPOS>ATOM
      1  N         59.8070   30.8470   76.8580 N.3    56  ASN56      -0.1225
      2  CA        60.7320   31.4550   75.9520 C.3    56  ASN56       0.1785
      3  C         62.2010   31.0920   76.3260 C.2    56  ASN56       0.2598
      4  O         62.4610   30.4000   77.3350 O.2    56  ASN56      -0.2718
      5  CB        60.4900   32.9530   75.7780 C.3    56  ASN56       0.1169
      6  CG        59.3540   33.1330   74.8210 C.2    56  ASN56       0.2627
      7  OD1       58.2080   33.3590   75.2350 O.2    56  ASN56      -0.2716
      8  ND2       59.6530   33.0280   73.5220 N.am   56  ASN56      -0.0877
      9  N         63.1740   31.4670   75.4830 N.am   57  GLY57      -0.1942
     10  CA        64.5410   31.0070   75.7130 C.3    57  GLY57       0.2014
     11  C         65.4870   32.0870   76.2310 C.2    57  GLY57       0.2639
     12  O         65.3270   32.6970   77.2860 O.2    57  GLY57      -0.2714
     13  N         66.5000   32.3210   75.4410 N.am   58  GLY58      -0.1954
     14  CA        67.5130   33.2900   75.7980 C.3    58  GLY58       0.1869
     15  C         68.8860   32.5990   75.7850 C.2    58  GLY58       0.2309
     16  O         69.5850   32.5830   74.7860 O.2    58  GLY58      -0.2863
     17  N         65.6090   35.2000   78.5820 N.3    61  CYS61      -0.1235
     18  CA        64.4950   35.9700   77.9940 C.3    61  CYS61       0.1677
     19  C         63.1330   35.5620   78.6070 C.2    61  CYS61       0.2270
     20  O         62.9470   34.4110   79.0770 O.2    61  CYS61      -0.2867
     21  CB        64.5350   35.9760   76.4580 C.3    61  CYS61       0.0956
     22  SG        66.0870   36.7150   75.8600 S.3    61  CYS61      -0.0801
     23  N         57.8860   37.8800   75.3020 N.3    66  TYR66      -0.1241
     24  CA        57.7850   37.2820   73.9850 C.3    66  TYR66       0.1605
     25  C         56.5130   36.5180   73.7230 C.2    66  TYR66       0.2264
     26  O         55.6060   36.9900   73.0100 O.2    66  TYR66      -0.2867
     27  CB        59.0750   36.4660   73.7490 C.3    66  TYR66       0.0534
     28  CG        60.2690   37.3880   73.6370 C.ar   66  TYR66      -0.0201
     29  CD1       60.4220   38.1710   72.4860 C.ar   66  TYR66      -0.0009
     30  CD2       61.1930   37.5360   74.6760 C.ar   66  TYR66      -0.0009
     31  CE1       61.4810   39.0700   72.3510 C.ar   66  TYR66       0.0417
     32  CE2       62.2520   38.4440   74.5700 C.ar   66  TYR66       0.0417
     33  CZ        62.3810   39.2110   73.4040 C.ar   66  TYR66       0.1957
     34  OH        63.4100   40.1060   73.2710 O.3    66  TYR66      -0.2866
     35  N         54.1950   39.2370   72.0170 N.3    70  GLU70      -0.1231
     36  CA        54.4430   39.3810   70.5980 C.3    70  GLU70       0.1699
     37  C         54.3460   38.0480   69.8670 C.2    70  GLU70       0.2592
     38  O         54.7900   37.9270   68.7320 O.2    70  GLU70      -0.2718
     39  CB        55.7400   40.1240   70.2240 C.3    70  GLU70       0.0402
     40  CG        57.0340   39.4890   70.8040 C.3    70  GLU70       0.1161
     41  CD        58.2540   40.2110   70.2750 C.2    70  GLU70       0.3649
     42  OE1       58.3800   41.4530   70.6700 O.co2  70  GLU70      -0.2457
     43  OE2       59.0420   39.7060   69.5170 O.co2  70  GLU70      -0.2457
     44  N         53.7880   37.0620   70.5390 N.am   71  GLU71      -0.1979
     45  CA        53.6400   35.7770   69.9230 C.3    71  GLU71       0.1602
     46  C         52.2470   35.2130   70.0800 C.2    71  GLU71       0.2287
     47  O         51.3070   35.7510   69.5290 O.2    71  GLU71      -0.2864
     48  CB        54.7140   34.7750   70.4000 C.3    71  GLU71       0.0415
     49  CG        56.1340   35.3170   70.0450 C.3    71  GLU71       0.1163
     50  CD        57.1340   34.2300   70.2760 C.2    71  GLU71       0.3649
     51  OE1       57.4970   34.1820   71.5400 O.co2  71  GLU71      -0.2457
     52  OE2       57.4700   33.3800   69.4310 O.co2  71  GLU71      -0.2457
     53  N         60.2130   27.7840   72.7040 N.3   153  GLU153     -0.1231
     54  CA        61.0620   28.0300   71.5550 C.3   153  GLU153      0.1699
     55  C         62.5400   28.2930   71.8700 C.2   153  GLU153      0.2593
     56  O         62.9330   28.7340   72.9730 O.2   153  GLU153     -0.2718
     57  CB        60.4670   29.0830   70.5970 C.3   153  GLU153      0.0402
     58  CG        60.8480   30.4660   71.0750 C.3   153  GLU153      0.1161
     59  CD        60.2370   31.6250   70.3380 C.2   153  GLU153      0.3649
     60  OE1       59.0400   31.3930   69.9300 O.co2 153  GLU153     -0.2457
     61  OE2       60.7710   32.7350   70.2850 O.co2 153  GLU153     -0.2457
     62  N         63.3500   27.9370   70.8630 N.am  154  SER154     -0.1938
     63  CA        64.7740   28.2250   70.8750 C.3   154  SER154      0.2055
     64  C         65.5650   27.7170   72.0910 C.2   154  SER154      0.2643
     65  O         65.7600   26.5240   72.2120 O.2   154  SER154     -0.2714
     66  CB        64.8010   29.7250   70.8050 C.3   154  SER154      0.2130
     67  OG        65.9980   30.0970   70.2100 O.3   154  SER154     -0.2179
     68  N         66.0680   28.6060   72.9870 N.am  155  TYR155     -0.1973
     69  CA        66.7910   28.0480   74.1230 C.3   155  TYR155      0.1639
     70  C         65.8440   27.1560   74.9460 C.2   155  TYR155      0.2290
     71  O         66.2310   26.2110   75.6520 O.2   155  TYR155     -0.2864
     72  CB        67.5250   29.1320   74.9670 C.3   155  TYR155      0.0560
     73  CG        68.5190   28.3850   75.8100 C.ar  155  TYR155     -0.0198
     74  CD1       69.6880   27.8750   75.2330 C.ar  155  TYR155     -0.0009
     75  CD2       68.2330   28.0890   77.1460 C.ar  155  TYR155     -0.0009
     76  CE1       70.5960   27.1070   75.9690 C.ar  155  TYR155      0.0417
     77  CE2       69.1150   27.3000   77.8910 C.ar  155  TYR155      0.0417
     78  CZ        70.2920   26.8120   77.3020 C.ar  155  TYR155      0.1957
     79  OH        71.1120   25.9830   78.0110 O.3   155  TYR155     -0.2866
     80  N         66.5820   36.5470   62.7620 N.3   247  TYR247     -0.1241
     81  CA        65.4280   35.8290   63.2950 C.3   247  TYR247      0.1605
     82  C         64.3200   35.7090   62.2580 C.2   247  TYR247      0.2264
     83  O         63.3330   35.0370   62.5600 O.2   247  TYR247     -0.2867
     84  CB        64.7670   36.5180   64.5410 C.3   247  TYR247      0.0534
     85  CG        65.6240   36.4320   65.7890 C.ar  247  TYR247     -0.0201
     86  CD1       65.6760   35.3000   66.6010 C.ar  247  TYR247     -0.0009
     87  CD2       66.4660   37.4830   66.1250 C.ar  247  TYR247     -0.0009
     88  CE1       66.5460   35.2030   67.6880 C.ar  247  TYR247      0.0417
     89  CE2       67.3520   37.4030   67.1950 C.ar  247  TYR247      0.0417
     90  CZ        67.3860   36.2690   67.9990 C.ar  247  TYR247      0.1957
     91  OH        68.2500   36.2340   69.0890 O.3   247  TYR247     -0.2866
@<TRIPOS>BOND
     1    82    83    2
     2    82    81    1
     3    80    81    1
     4    81    84    1
     5    84    85    1
     6    85    87   ar
     7    85    86   ar
     8    87    89   ar
     9    86    88   ar
    10    89    90   ar
    11    88    90   ar
    12    90    91    1
    13    38    37    2
    14    52    50   ar
    15    43    41   ar
    16    47    46    2
    17    37    44   am
    18    37    36    1
    19    45    46    1
    20    45    48    1
    21    45    44    1
    22    60    59   ar
    23    49    50    1
    24    49    48    1
    25    67    66    1
    26    39    36    1
    27    39    40    1
    28    41    42   ar
    29    41    40    1
    30    50    51   ar
    31    61    59   ar
    32    59    58    1
    33    57    58    1
    34    57    54    1
    35    36    35    1
    36    66    63    1
    37    62    63    1
    38    62    55   am
    39    63    64    1
    40    54    55    1
    41    54    53    1
    42    55    56    2
    43    64    65    2
    44    64    68   am
    45    31    29   ar
    46    31    33   ar
    47    29    28   ar
    48    68    69    1
    49    26    25    2
    50    34    33    1
    51    33    32   ar
    52     8     6   am
    53    28    27    1
    54    28    30   ar
    55    25    24    1
    56    27    24    1
    57    24    23    1
    58    69    70    1
    59    69    72    1
    60    32    30   ar
    61    16    15    2
    62     6     7    2
    63     6     5    1
    64    70    71    2
    65    72    73    1
    66    74    73   ar
    67    74    76   ar
    68    13    14    1
    69    13    11   am
    70     9    10    1
    71     9     3   am
    72    10    11    1
    73     5     2    1
    74    15    14    1
    75    73    75   ar
    76    22    21    1
    77     2     3    1
    78     2     1    1
    79    76    78   ar
    80    11    12    2
    81     3     4    2
    82    21    18    1
    83    75    77   ar
    84    78    77   ar
    85    78    79    1
    86    18    17    1
    87    18    19    1
    88    19    20    2
