@<TRIPOS>MOLECULE
tmp/1wk4A00.pdb
 141 141 0 0 0
SMALL
GASTEIGER

@<TRIPOS>ATOM
      1  N          9.1980   22.1790    0.9020 N.3    94  ILE94      -0.1231
      2  CA         8.7410   23.5490    0.7650 C.3    94  ILE94       0.1692
      3  C          9.9480   24.4650    0.9060 C.2    94  ILE94       0.2592
      4  O         10.6360   24.4560    1.9230 O.2    94  ILE94      -0.2718
      5  CB         7.6820   23.8800    1.8310 C.3    94  ILE94       0.0266
      6  CG1        7.2090   25.3240    1.6690 C.3    94  ILE94       0.0019
      7  CG2        8.2410   23.6210    3.2160 C.3    94  ILE94       0.0020
      8  CD1        6.0850   25.7060    2.6260 C.3    94  ILE94       0.0001
      9  N         10.2090   25.2470   -0.1320 N.am   95  TYR95      -0.1962
     10  CA        11.3460   26.1510   -0.1330 C.3    95  TYR95       0.1771
     11  C         11.0890   27.4700   -0.8400 C.2    95  TYR95       0.2619
     12  O         10.5790   27.5030   -1.9570 O.2    95  TYR95      -0.2715
     13  CB        12.5310   25.4720   -0.7990 C.3    95  TYR95       0.0574
     14  CG        12.9500   24.2030   -0.1210 C.ar   95  TYR95      -0.0198
     15  CD1       12.5750   22.9620   -0.6240 C.ar   95  TYR95      -0.0009
     16  CD2       13.7330   24.2420    1.0290 C.ar   95  TYR95      -0.0009
     17  CE1       12.9800   21.7840    0.0030 C.ar   95  TYR95       0.0417
     18  CE2       14.1380   23.0800    1.6640 C.ar   95  TYR95       0.0417
     19  CZ        13.7640   21.8550    1.1480 C.ar   95  TYR95       0.1957
     20  OH        14.1930   20.7090    1.7770 O.3    95  TYR95      -0.2866
     21  N         11.4480   28.5650   -0.1900 N.am   96  VAL96      -0.1977
     22  CA        11.2790   29.8730   -0.8010 C.3    96  VAL96       0.1596
     23  C         12.6760   30.4140   -1.0960 C.2    96  VAL96       0.2287
     24  O         13.5780   30.2570   -0.2790 O.2    96  VAL96      -0.2864
     25  CB        10.5270   30.8290    0.1430 C.3    96  VAL96       0.0276
     26  CG1       10.3340   32.1840   -0.5370 C.3    96  VAL96       0.0022
     27  CG2        9.1690   30.2130    0.5330 C.3    96  VAL96       0.0022
     28  N         13.5500   35.9570   -1.4310 N.3   100  TRP100     -0.1227
     29  CA        12.1040   36.1200   -1.3560 C.3   100  TRP100      0.1737
     30  C         11.5230   35.7250   -0.0030 C.2   100  TRP100      0.2595
     31  O         10.3010   35.6970    0.1600 O.2   100  TRP100     -0.2718
     32  CB        11.4090   35.3110   -2.4600 C.3   100  TRP100      0.0564
     33  CG        11.6820   35.8050   -3.8570 C.ar  100  TRP100      0.0003
     34  CD1       12.8120   35.5990   -4.5950 C.ar  100  TRP100      0.0946
     35  CD2       10.8130   36.6060   -4.6700 C.ar  100  TRP100      0.0152
     36  NE1       12.7010   36.2210   -5.8180 N.ar  100  TRP100     -0.2442
     37  CE2       11.4850   36.8470   -5.8890 C.ar  100  TRP100      0.0810
     38  CE3        9.5310   37.1450   -4.4850 C.ar  100  TRP100      0.0012
     39  CZ2       10.9180   37.6050   -6.9240 C.ar  100  TRP100      0.0191
     40  CZ3        8.9680   37.9000   -5.5140 C.ar  100  TRP100      0.0001
     41  CH2        9.6630   38.1210   -6.7180 C.ar  100  TRP100      0.0015
     42  N         12.3840   35.4130    0.9630 N.am  101  GLN101     -0.1965
     43  CA        11.9010   35.0370    2.2840 C.3   101  GLN101      0.1733
     44  C         11.3160   36.2370    3.0220 C.2   101  GLN101      0.2616
     45  O         11.3670   37.3540    2.5220 O.2   101  GLN101     -0.2715
     46  CB        13.0130   34.3980    3.1090 C.3   101  GLN101      0.0408
     47  CG        12.9450   32.8810    3.1100 C.3   101  GLN101      0.0908
     48  CD        14.2420   32.2320    2.6750 C.2   101  GLN101      0.2608
     49  OE1       15.2440   32.2840    3.3840 O.2   101  GLN101     -0.2717
     50  NE2       14.2310   31.6220    1.5000 N.am  101  GLN101     -0.0878
     51  N         10.7500   35.9870    4.2010 N.am  102  ARG102     -0.1963
     52  CA        10.1230   37.0190    5.0250 C.3   102  ARG102      0.1729
     53  C          9.1190   37.8740    4.2460 C.2   102  ARG102      0.2616
     54  O          8.9340   39.0570    4.5320 O.2   102  ARG102     -0.2715
     55  CB        11.1970   37.8970    5.6800 C.3   102  ARG102      0.0348
     56  CG        11.9800   37.1610    6.7680 C.3   102  ARG102      0.0492
     57  CD        12.9280   38.0590    7.5690 C.3   102  ARG102      0.2205
     58  NE        14.2730   38.1470    6.9950 N.pl3 102  ARG102     -0.0865
     59  CZ        14.6610   39.0540    6.1010 C.cat 102  ARG102      0.5346
     60  NH1       13.8110   39.9720    5.6620 N.pl3 102  ARG102      0.1354
     61  NH2       15.9090   39.0470    5.6480 N.pl3 102  ARG102      0.1354
     62  N          8.4500   37.2490    3.2810 N.am  103  LYS103     -0.1963
     63  CA         7.4710   37.9330    2.4440 C.3   103  LYS103      0.1728
     64  C          6.0730   37.2720    2.4950 C.2   103  LYS103      0.2617
     65  O          5.1170   37.7700    1.8960 O.2   103  LYS103     -0.2715
     66  CB         7.9930   37.9570    1.0070 C.3   103  LYS103      0.0311
     67  CG         7.8370   39.2770    0.2830 C.3   103  LYS103      0.0038
     68  CD         8.3920   39.1620   -1.1280 C.3   103  LYS103      0.0206
     69  CE         7.9770   40.3340   -2.0140 C.3   103  LYS103      0.1093
     70  NZ         8.5200   41.6480   -1.5630 N.3   103  LYS103     -0.1314
     71  N          5.9590   36.1530    3.2080 N.am  104  GLY104     -0.1940
     72  CA         4.6810   35.4680    3.3180 C.3   104  GLY104      0.2014
     73  C          4.5380   34.2370    2.4370 C.2   104  GLY104      0.2639
     74  O          3.8020   33.3090    2.7700 O.2   104  GLY104     -0.2714
     75  N          5.2450   34.2310    1.3110 N.am  105  LEU105     -0.1963
     76  CA         5.2150   33.1280    0.3490 C.3   105  LEU105      0.1728
     77  C          5.2810   31.7060    0.9300 C.2   105  LEU105      0.2617
     78  O          4.8700   30.7370    0.2810 O.2   105  LEU105     -0.2715
     79  CB         6.3440   33.3230   -0.6660 C.3   105  LEU105      0.0311
     80  CG         6.1060   34.4170   -1.7130 C.3   105  LEU105      0.0022
     81  CD1        5.3200   35.5570   -1.1050 C.3   105  LEU105      0.0001
     82  CD2        7.4330   34.9050   -2.2670 C.3   105  LEU105      0.0001
     83  N          5.8030   31.5790    2.1450 N.am  106  GLY106     -0.1940
     84  CA         5.8910   30.2730    2.7680 C.3   106  GLY106      0.2014
     85  C          4.5560   29.8110    3.3280 C.2   106  GLY106      0.2638
     86  O          4.2050   28.6380    3.2040 O.2   106  GLY106     -0.2714
     87  N          3.8070   30.7210    3.9530 N.am  107  ARG107     -0.1977
     88  CA         2.5110   30.3540    4.5150 C.3   107  ARG107      0.1597
     89  C          1.4910   30.3710    3.3920 C.2   107  ARG107      0.2287
     90  O          0.4820   29.6650    3.4310 O.2   107  ARG107     -0.2864
     91  CB         2.1070   31.3000    5.6660 C.3   107  ARG107      0.0334
     92  CG         1.6700   32.7050    5.2950 C.3   107  ARG107      0.0492
     93  CD         0.2880   32.7160    4.6500 C.3   107  ARG107      0.2205
     94  NE        -0.4450   33.9540    4.9140 N.pl3 107  ARG107     -0.0865
     95  CZ        -0.9760   34.2710    6.0930 C.cat 107  ARG107      0.5346
     96  NH1       -0.8600   33.4410    7.1280 N.pl3 107  ARG107      0.1354
     97  NH2       -1.6210   35.4220    6.2370 N.pl3 107  ARG107      0.1354
     98  N         17.4950   23.4500   12.7470 N.3   132  ASN132     -0.1240
     99  CA        16.7790   24.3600   11.8610 C.3   132  ASN132      0.1653
    100  C         15.7200   25.0690   12.7030 C.2   132  ASN132      0.2266
    101  O         14.5250   24.9440   12.4500 O.2   132  ASN132     -0.2867
    102  CB        16.0910   23.5690   10.7420 C.3   132  ASN132      0.1155
    103  CG        15.4960   24.4620    9.6660 C.2   132  ASN132      0.2627
    104  OD1       15.1130   25.6030    9.9260 O.2   132  ASN132     -0.2716
    105  ND2       15.3990   23.9330    8.4490 N.am  132  ASN132     -0.0877
    106  N         14.7950   27.8450   12.5990 N.3   134  LYS134     -0.1231
    107  CA        14.0500   28.7660   11.7570 C.3   134  LYS134      0.1693
    108  C         12.7910   28.0730   11.2280 C.2   134  LYS134      0.2592
    109  O         11.6650   28.5260   11.4700 O.2   134  LYS134     -0.2718
    110  CB        14.9230   29.2310   10.5930 C.3   134  LYS134      0.0285
    111  CG        14.3470   30.4140    9.8210 C.3   134  LYS134      0.0035
    112  CD        15.2630   30.8250    8.6780 C.3   134  LYS134      0.0206
    113  CE        16.7070   30.9990    9.1570 C.3   134  LYS134      0.1093
    114  NZ        16.8060   31.8660   10.3680 N.3   134  LYS134     -0.1314
    115  N         12.9930   26.9740   10.5080 N.am  135  GLY135     -0.1957
    116  CA        11.8760   26.2300    9.9680 C.3   135  GLY135      0.1869
    117  C         10.9060   25.8440   11.0660 C.2   135  GLY135      0.2309
    118  O          9.7070   26.0950   10.9610 O.2   135  GLY135     -0.2863
    119  N          8.5920   28.4140   12.0570 N.3   138  PHE138     -0.1227
    120  CA         7.5350   28.6030   11.0690 C.3   138  PHE138      0.1736
    121  C          6.2950   27.7570   11.3660 C.2   138  PHE138      0.2595
    122  O          5.2220   28.2840   11.6580 O.2   138  PHE138     -0.2718
    123  CB         8.0940   28.2540    9.6910 C.3   138  PHE138      0.0547
    124  CG         7.0740   28.2560    8.5870 C.ar  138  PHE138     -0.0202
    125  CD1        6.3520   29.4050    8.2850 C.ar  138  PHE138     -0.0042
    126  CD2        6.8720   27.1150    7.8160 C.ar  138  PHE138     -0.0042
    127  CE1        5.4480   29.4210    7.2320 C.ar  138  PHE138     -0.0003
    128  CE2        5.9720   27.1220    6.7610 C.ar  138  PHE138     -0.0003
    129  CZ         5.2580   28.2780    6.4680 C.ar  138  PHE138     -0.0000
    130  N          6.4510   26.4420   11.2940 N.am  139  TYR139     -0.1976
    131  CA         5.3490   25.5240   11.5400 C.3   139  TYR139      0.1639
    132  C          4.6650   25.7110   12.8940 C.2   139  TYR139      0.2290
    133  O          3.5900   25.1500   13.1270 O.2   139  TYR139     -0.2864
    134  CB         5.8390   24.0810   11.4040 C.3   139  TYR139      0.0560
    135  CG         6.3950   23.7680   10.0350 C.ar  139  TYR139     -0.0198
    136  CD1        5.5720   23.7730    8.9100 C.ar  139  TYR139     -0.0009
    137  CD2        7.7530   23.4880    9.8590 C.ar  139  TYR139     -0.0009
    138  CE1        6.0880   23.5080    7.6410 C.ar  139  TYR139      0.0417
    139  CE2        8.2780   23.2220    8.5970 C.ar  139  TYR139      0.0417
    140  CZ         7.4430   23.2360    7.4940 C.ar  139  TYR139      0.1957
    141  OH         7.9670   22.9960    6.2460 O.3   139  TYR139     -0.2866
@<TRIPOS>BOND
     1    39    41   ar
     2    39    37   ar
     3    41    40   ar
     4    37    36   ar
     5    37    35   ar
     6    36    34   ar
     7    40    38   ar
     8    35    38   ar
     9    35    33   ar
    10    34    33   ar
    11    33    32    1
    12    32    29    1
    13    82    80    1
    14    69    70    1
    15    69    68    1
    16    12    11    2
    17    80    81    1
    18    80    79    1
    19    28    29    1
    20    29    30    1
    21    68    67    1
    22    23    22    1
    23    23    24    2
    24    11    21   am
    25    11    10    1
    26    22    21    1
    27    22    25    1
    28    13    10    1
    29    13    14    1
    30    79    76    1
    31    15    14   ar
    32    15    17   ar
    33    26    25    1
    34    10     9    1
    35     9     3   am
    36    14    16   ar
    37    30    31    2
    38    30    42   am
    39    17    19   ar
    40    25    27    1
    41    78    77    2
    42    67    66    1
    43    76    77    1
    44    76    75    1
    45     2     1    1
    46     2     3    1
    47     2     5    1
    48     3     4    2
    49    77    83   am
    50    42    43    1
    51    66    63    1
    52    16    18   ar
    53    19    18   ar
    54    19    20    1
    55    75    73   am
    56    50    48   am
    57     6     5    1
    58     6     8    1
    59     5     7    1
    60    65    64    2
    61    83    84    1
    62    43    44    1
    63    43    46    1
    64    73    74    2
    65    73    72    1
    66    63    64    1
    67    63    62    1
    68    64    71   am
    69    45    44    2
    70    48    47    1
    71    48    49    2
    72    84    85    1
    73    44    51   am
    74    46    47    1
    75    86    85    2
    76    71    72    1
    77    62    53   am
    78    85    87   am
    79    89    90    2
    80    89    88    1
    81    87    88    1
    82    51    52    1
    83    53    54    2
    84    53    52    1
    85    88    91    1
    86    93    94    1
    87    93    92    1
    88    94    95    2
    89    52    55    1
    90    92    91    1
    91    61    59    1
    92    60    59    1
    93    55    56    1
    94    95    97    1
    95    95    96    1
    96    59    58    2
    97   141   140    1
    98   129   128   ar
    99   129   127   ar
   100   128   126   ar
   101    56    57    1
   102    58    57    1
   103   127   125   ar
   104   140   138   ar
   105   140   139   ar
   106   138   136   ar
   107   126   124   ar
   108   125   124   ar
   109   105   103   am
   110   124   123    1
   111   139   137   ar
   112   112   113    1
   113   112   111    1
   114   136   135   ar
   115   113   114    1
   116   103   104    2
   117   103   102    1
   118   123   120    1
   119   111   110    1
   120   137   135   ar
   121   116   115    1
   122   116   117    1
   123   135   134    1
   124   115   108   am
   125   110   107    1
   126   102    99    1
   127   118   117    2
   128   120   121    1
   129   120   119    1
   130   108   109    2
   131   108   107    1
   132   130   121   am
   133   130   131    1
   134   121   122    2
   135   134   131    1
   136   131   132    1
   137   107   106    1
   138    99   100    1
   139    99    98    1
   140   101   100    2
   141   132   133    2
