@<TRIPOS>MOLECULE
tmp/1wk9A00.pdb
 145 139 0 0 0
SMALL
GASTEIGER

@<TRIPOS>ATOM
      1  N         54.5900  170.2100   65.5110 N.3     3  LEU3       -0.1245
      2  CA        55.2150  171.1290   64.5690 C.3     3  LEU3        0.1561
      3  C         56.7070  170.9360   64.6820 C.2     3  LEU3        0.2260
      4  O         57.2740  171.0510   65.7760 O.2     3  LEU3       -0.2867
      5  CB        54.8500  172.5860   64.8730 C.3     3  LEU3        0.0270
      6  CG        55.5150  173.6260   63.9560 C.3     3  LEU3        0.0019
      7  CD1       54.9580  173.5080   62.5410 C.3     3  LEU3        0.0001
      8  CD2       55.2660  175.0400   64.5240 C.3     3  LEU3        0.0001
      9  N         59.6250  175.4520   59.3400 N.3    19  ALA19      -0.1231
     10  CA        58.7130  174.7080   60.2080 C.3    19  ALA19       0.1694
     11  C         57.6730  174.0160   59.3360 C.2    19  ALA19       0.2593
     12  O         57.2140  174.5690   58.3280 O.2    19  ALA19      -0.2718
     13  CB        58.0260  175.6400   61.1690 C.3    19  ALA19       0.0304
     14  N         57.3090  172.7950   59.7060 N.am   20  THR20      -0.1939
     15  CA        56.3080  172.0560   58.9560 C.3    20  THR20       0.2028
     16  C         55.6180  171.0040   59.8210 C.2    20  THR20       0.2642
     17  O         56.1920  170.5050   60.8050 O.2    20  THR20      -0.2714
     18  CB        56.9440  171.3040   57.7490 C.3    20  THR20       0.1808
     19  OG1       55.9180  170.6620   56.9950 O.3    20  THR20      -0.2208
     20  CG2       57.8960  170.2350   58.2370 C.3    20  THR20       0.0379
     21  N         54.3820  170.6720   59.4850 N.am   21  VAL21      -0.1963
     22  CA        53.7440  169.5930   60.2140 C.3    21  VAL21       0.1727
     23  C         53.7270  168.3740   59.2800 C.2    21  VAL21       0.2616
     24  O         53.1430  167.3490   59.5970 O.2    21  VAL21      -0.2715
     25  CB        52.3020  169.9580   60.6600 C.3    21  VAL21       0.0290
     26  CG1       52.3570  171.1580   61.6140 C.3    21  VAL21       0.0023
     27  CG2       51.4370  170.2990   59.4850 C.3    21  VAL21       0.0023
     28  N         54.3870  168.4890   58.1270 N.am   22  ARG22      -0.1977
     29  CA        54.4040  167.3980   57.1400 C.3    22  ARG22       0.1597
     30  C         55.8320  167.0840   56.7280 C.2    22  ARG22       0.2287
     31  O         56.2280  167.2440   55.5800 O.2    22  ARG22      -0.2864
     32  CB        53.5890  167.8120   55.9220 C.3    22  ARG22       0.0334
     33  CG        52.1230  168.0000   56.2550 C.3    22  ARG22       0.0492
     34  CD        51.3240  167.2710   55.2200 C.3    22  ARG22       0.2205
     35  NE        51.0030  168.1770   54.1490 N.pl3  22  ARG22      -0.0865
     36  CZ        50.7480  167.8250   52.8950 C.cat  22  ARG22       0.5346
     37  NH1       50.7760  166.5530   52.4900 N.pl3  22  ARG22       0.1354
     38  NH2       50.4480  168.7820   52.0440 N.pl3  22  ARG22       0.1354
     39  N         56.9960  165.3990   53.4700 N.3    25  THR25      -0.1218
     40  CA        56.9850  166.0800   52.1740 C.3    25  THR25       0.1862
     41  C         58.2380  166.9130   51.8940 C.2    25  THR25       0.2287
     42  O         58.3950  167.4760   50.8060 O.2    25  THR25      -0.2866
     43  CB        55.7700  167.0040   52.0230 C.3    25  THR25       0.1770
     44  OG1       55.8990  168.1080   52.9370 O.3    25  THR25      -0.2211
     45  CG2       54.4850  166.2230   52.2730 C.3    25  THR25       0.0375
     46  N         53.3000  186.4130   49.1570 N.3    65  ALA65      -0.1231
     47  CA        52.2490  185.6460   49.8170 C.3    65  ALA65       0.1694
     48  C         52.7780  185.0180   51.1250 C.2    65  ALA65       0.2592
     49  O         52.0010  184.4850   51.9260 O.2    65  ALA65      -0.2718
     50  CB        51.7400  184.5590   48.8850 C.3    65  ALA65       0.0304
     51  N         54.0950  185.0760   51.3520 N.am   66  VAL66      -0.1966
     52  CA        54.6620  184.4890   52.5750 C.3    66  VAL66       0.1727
     53  C         54.3900  185.3510   53.8050 C.2    66  VAL66       0.2616
     54  O         54.5670  186.5640   53.7700 O.2    66  VAL66      -0.2715
     55  CB        56.1980  184.2530   52.4420 C.3    66  VAL66       0.0290
     56  CG1       56.7820  183.7420   53.7770 C.3    66  VAL66       0.0023
     57  CG2       56.4640  183.2350   51.3620 C.3    66  VAL66       0.0023
     58  N         53.9380  184.7280   54.8900 N.am   67  GLU67      -0.1977
     59  CA        53.6550  185.4590   56.1290 C.3    67  GLU67       0.1602
     60  C         54.8710  185.3050   57.0310 C.2    67  GLU67       0.2287
     61  O         55.2180  184.1850   57.4040 O.2    67  GLU67      -0.2864
     62  CB        52.4230  184.8790   56.8400 C.3    67  GLU67       0.0415
     63  CG        51.1060  185.1410   56.1250 C.3    67  GLU67       0.1163
     64  CD        50.6100  186.5770   56.2930 C.2    67  GLU67       0.3649
     65  OE1       49.6580  186.9560   55.5670 O.co2  67  GLU67      -0.2457
     66  OE2       51.1650  187.3160   57.1550 O.co2  67  GLU67      -0.2457
     67  N         54.2650  183.3040   60.2810 N.3    70  PHE70      -0.1227
     68  CA        53.8650  181.8860   60.2460 C.3    70  PHE70       0.1736
     69  C         55.0860  180.9830   60.2640 C.2    70  PHE70       0.2596
     70  O         55.9500  181.0730   59.3900 O.2    70  PHE70      -0.2718
     71  CB        53.0300  181.5720   58.9970 C.3    70  PHE70       0.0547
     72  CG        51.6360  182.1310   59.0360 C.ar   70  PHE70      -0.0202
     73  CD1       51.1180  182.6880   60.2100 C.ar   70  PHE70      -0.0042
     74  CD2       50.8270  182.0890   57.9000 C.ar   70  PHE70      -0.0042
     75  CE1       49.8110  183.1990   60.2530 C.ar   70  PHE70      -0.0003
     76  CE2       49.5140  182.5970   57.9270 C.ar   70  PHE70      -0.0003
     77  CZ        49.0070  183.1540   59.1080 C.ar   70  PHE70      -0.0000
     78  N         55.1440  180.0750   61.2350 N.am   71  GLY71      -0.1957
     79  CA        56.3100  179.2190   61.3230 C.3    71  GLY71       0.1869
     80  C         57.5290  180.1100   61.5410 C.2    71  GLY71       0.2309
     81  O         57.4680  181.0810   62.3010 O.2    71  GLY71      -0.2863
     82  N         58.8330  181.8540   59.1950 N.3    73  GLY73      -0.1210
     83  CA        58.7860  182.9420   58.2240 C.3    73  GLY73       0.1956
     84  C         59.3730  182.4540   56.9100 C.2    73  GLY73       0.2612
     85  O         59.2470  183.0930   55.8640 O.2    73  GLY73      -0.2717
     86  N         60.0350  181.3070   56.9540 N.am   74  ALA74      -0.1965
     87  CA        60.6050  180.7370   55.7440 C.3    74  ALA74       0.1728
     88  C         59.7550  179.5240   55.3860 C.2    74  ALA74       0.2616
     89  O         59.6560  178.5620   56.1480 O.2    74  ALA74      -0.2715
     90  CB        62.0130  180.3480   55.9720 C.3    74  ALA74       0.0334
     91  N         59.1320  179.5870   54.2190 N.am   75  LEU75      -0.1963
     92  CA        58.2130  178.5460   53.7820 C.3    75  LEU75       0.1728
     93  C         58.7700  177.5540   52.7800 C.2    75  LEU75       0.2616
     94  O         59.2090  177.9490   51.6940 O.2    75  LEU75      -0.2715
     95  CB        56.9730  179.2010   53.1550 C.3    75  LEU75       0.0311
     96  CG        55.8910  178.2730   52.5850 C.3    75  LEU75       0.0022
     97  CD1       55.2940  177.4020   53.6980 C.3    75  LEU75       0.0001
     98  CD2       54.7870  179.1260   51.9260 C.3    75  LEU75       0.0001
     99  N         58.7490  176.2630   53.1300 N.am   76  LYS76      -0.1977
    100  CA        59.2000  175.2500   52.1720 C.3    76  LYS76       0.1596
    101  C         58.0470  175.1610   51.1670 C.2    76  LYS76       0.2287
    102  O         56.8750  175.1980   51.5530 O.2    76  LYS76      -0.2864
    103  CB        59.4830  173.9040   52.8700 C.3    76  LYS76       0.0298
    104  CG        58.2570  173.2000   53.5110 C.3    76  LYS76       0.0038
    105  CD        58.7370  171.8980   54.1820 C.3    76  LYS76       0.0206
    106  CE        57.7710  170.7220   54.0230 C.3    76  LYS76       0.1093
    107  NZ        57.5990  170.2870   52.5920 N.3    76  LYS76      -0.1314
    108  N         56.1330  173.0520   48.1900 N.3    78  THR78      -0.1218
    109  CA        55.9860  171.7640   47.5080 C.3    78  THR78       0.1862
    110  C         54.7410  171.8540   46.6220 C.2    78  THR78       0.2287
    111  O         53.6350  171.4470   47.0230 O.2    78  THR78      -0.2866
    112  CB        55.7860  170.5910   48.5230 C.3    78  THR78       0.1770
    113  OG1       54.6420  170.8660   49.3390 O.3    78  THR78      -0.2211
    114  CG2       56.9710  170.4470   49.4180 C.3    78  THR78       0.0375
    115  N         50.4840  170.8300   47.9520 N.3    82  ASP82      -0.1225
    116  CA        49.8150  171.8880   48.6970 C.3    82  ASP82       0.1790
    117  C         49.2970  172.8950   47.6750 C.2    82  ASP82       0.2440
    118  O         50.0350  173.3130   46.7750 O.2    82  ASP82      -0.2733
    119  CB        50.8290  172.5180   49.6550 C.3    82  ASP82       0.1423
    120  CG        50.2610  173.6690   50.4250 C.2    82  ASP82       0.3668
    121  OD1       50.1050  174.7670   49.8390 O.co2  82  ASP82      -0.2456
    122  OD2       49.9610  173.4730   51.6150 O.co2  82  ASP82      -0.2456
    123  N         48.0280  173.3150   47.8050 N.am   83  PRO83      -0.2718
    124  CA        47.4260  174.2650   46.8580 C.3    83  PRO83       0.1535
    125  C         48.0060  175.6670   46.8140 C.2    83  PRO83       0.2598
    126  O         48.0360  176.2670   45.7510 O.2    83  PRO83      -0.2715
    127  CB        45.9390  174.2190   47.2260 C.3    83  PRO83       0.0310
    128  CG        45.9600  174.0000   48.6830 C.3    83  PRO83       0.0237
    129  CD        47.0870  172.9790   48.8860 C.3    83  PRO83       0.0939
    130  N         48.4630  176.1940   47.9470 N.am   84  LEU84      -0.1964
    131  CA        49.0900  177.5140   47.9530 C.3    84  LEU84       0.1728
    132  C         50.4770  177.3660   47.3210 C.2    84  LEU84       0.2616
    133  O         50.8810  178.1980   46.5160 O.2    84  LEU84      -0.2715
    134  CB        49.2340  178.0600   49.3840 C.3    84  LEU84       0.0311
    135  CG        50.2530  179.1980   49.6480 C.3    84  LEU84       0.0022
    136  CD1       49.7100  180.5470   49.1430 C.3    84  LEU84       0.0001
    137  CD2       50.5560  179.2990   51.1450 C.3    84  LEU84       0.0001
    138  N         51.2160  176.3200   47.6880 N.am   85  ASP85      -0.1971
    139  CA        52.5340  176.1140   47.1010 C.3    85  ASP85       0.1709
    140  C         52.4000  175.9980   45.6050 C.2    85  ASP85       0.2293
    141  O         53.2800  176.4120   44.8620 O.2    85  ASP85      -0.2864
    142  CB        53.1970  174.8430   47.6400 C.3    85  ASP85       0.1436
    143  CG        53.5890  174.9690   49.0760 C.2    85  ASP85       0.3671
    144  OD1       53.5510  176.0970   49.6030 O.co2  85  ASP85      -0.2456
    145  OD2       53.9490  173.9510   49.6920 O.co2  85  ASP85      -0.2456
@<TRIPOS>BOND
     1   141   140    2
     2   140   139    1
     3   126   125    2
     4   133   132    2
     5   110   111    2
     6   110   109    1
     7   118   117    2
     8   125   124    1
     9   125   130   am
    10   124   127    1
    11   124   123    1
    12   139   142    1
    13   139   138    1
    14   127   128    1
    15   132   138   am
    16   132   131    1
    17   109   108    1
    18   109   112    1
    19   142   143    1
    20   117   123   am
    21   117   116    1
    22   123   129    1
    23   130   131    1
    24   115   116    1
    25   131   134    1
    26   112   113    1
    27   112   114    1
    28   128   129    1
    29   116   119    1
    30    50    47    1
    31   143   144   ar
    32   143   145   ar
    33   136   135    1
    34    46    47    1
    35   134   135    1
    36   135   137    1
    37   119   120    1
    38    47    48    1
    39   121   120   ar
    40   120   122   ar
    41    42    41    2
    42    48    51   am
    43    48    49    2
    44   101   102    2
    45   101   100    1
    46    51    52    1
    47    57    55    1
    48    94    93    2
    49    41    40    1
    50    98    96    1
    51    43    40    1
    52    43    45    1
    53    43    44    1
    54    38    36    1
    55   100   103    1
    56   100    99    1
    57    40    39    1
    58    55    52    1
    59    55    56    1
    60    37    36    1
    61    52    53    1
    62    96    95    1
    63    96    97    1
    64   107   106    1
    65    93    99   am
    66    93    92    1
    67   103   104    1
    68    36    35    2
    69    95    92    1
    70   104   105    1
    71    54    53    2
    72    92    91    1
    73    53    58   am
    74   106   105    1
    75    35    34    1
    76    91    88   am
    77    58    59    1
    78    34    33    1
    79    88    87    1
    80    88    89    2
    81    65    64   ar
    82    31    30    2
    83    87    90    1
    84    87    86    1
    85    85    84    2
    86    32    33    1
    87    32    29    1
    88    63    64    1
    89    63    62    1
    90    59    62    1
    91    59    60    1
    92    64    66   ar
    93    30    29    1
    94    84    86   am
    95    84    83    1
    96    19    18    1
    97    60    61    2
    98    29    28    1
    99    18    20    1
   100    18    15    1
   101    74    76   ar
   102    74    72   ar
   103    76    77   ar
   104    28    23   am
   105    83    82    1
   106    12    11    2
   107    15    14    1
   108    15    16    1
   109    71    72    1
   110    71    68    1
   111    72    73   ar
   112    77    75   ar
   113    23    24    2
   114    23    22    1
   115    11    14   am
   116    11    10    1
   117     9    10    1
   118    70    69    2
   119    21    16   am
   120    21    22    1
   121    27    25    1
   122    16    17    2
   123    10    13    1
   124    73    75   ar
   125    22    25    1
   126    68    69    1
   127    68    67    1
   128    69    78   am
   129    25    26    1
   130    78    79    1
   131    79    80    1
   132    80    81    2
   133     7     6    1
   134     6     8    1
   135     6     5    1
   136     2     3    1
   137     2     5    1
   138     2     1    1
   139     3     4    2
