@<TRIPOS>MOLECULE
tmp/1wkgA01.pdb
 75 74 0 0 0
SMALL
GASTEIGER

@<TRIPOS>ATOM
      1  N         10.1240    2.5240   48.3880 N.3    73  PRO73      -0.2102
      2  CA        10.1560    2.9100   49.8030 C.3    73  PRO73       0.1504
      3  C          9.5610    1.8920   50.7730 C.2    73  PRO73       0.2576
      4  O          8.8720    0.9560   50.3670 O.2    73  PRO73      -0.2718
      5  CB         9.3830    4.2170   49.8100 C.3    73  PRO73       0.0282
      6  CG         8.3300    3.9630   48.7640 C.3    73  PRO73       0.0208
      7  CD         9.1420    3.3390   47.6480 C.3    73  PRO73       0.0893
      8  N          9.8370    2.0980   52.0640 N.am   74  GLN74      -0.1966
      9  CA         9.3480    1.2240   53.1270 C.3    74  GLN74       0.1733
     10  C          7.8240    1.1770   53.2250 C.2    74  GLN74       0.2617
     11  O          7.2600    0.2840   53.8620 O.2    74  GLN74      -0.2715
     12  CB         9.9170    1.6770   54.4720 C.3    74  GLN74       0.0408
     13  CG        11.3570    1.2940   54.7000 C.3    74  GLN74       0.0908
     14  CD        11.5260   -0.1900   54.9790 C.2    74  GLN74       0.2608
     15  OE1       12.5550   -0.6220   55.5060 O.2    74  GLN74      -0.2717
     16  NE2       10.5200   -0.9790   54.6240 N.am   74  GLN74      -0.0878
     17  N          7.1630    2.1420   52.5990 N.am   75  THR75      -0.1951
     18  CA         5.7100    2.2000   52.6350 C.3    75  THR75       0.1897
     19  C          5.0960    1.2430   51.6240 C.2    75  THR75       0.2313
     20  O          3.9060    0.9440   51.6840 O.2    75  THR75      -0.2863
     21  CB         5.2020    3.6320   52.3550 C.3    75  THR75       0.1794
     22  OG1        5.7490    4.1080   51.1180 O.3    75  THR75      -0.2208
     23  CG2        5.6190    4.5710   53.4850 C.3    75  THR75       0.0378
     24  N         24.6540    4.9030   60.1130 N.3   107  GLU107     -0.1245
     25  CA        23.1980    5.0290   60.1220 C.3   107  GLU107      0.1567
     26  C         22.6050    3.9480   61.0210 C.2   107  GLU107      0.2260
     27  O         21.6210    4.1880   61.7190 O.2   107  GLU107     -0.2867
     28  CB        22.6120    4.9060   58.7050 C.3   107  GLU107      0.0388
     29  CG        22.4490    6.2400   57.9820 C.3   107  GLU107      0.1160
     30  CD        21.7710    6.1000   56.6220 C.2   107  GLU107      0.3649
     31  OE1       21.5620    7.1300   55.9490 O.co2 107  GLU107     -0.2457
     32  OE2       21.4510    4.9620   56.2250 O.co2 107  GLU107     -0.2457
     33  N          6.3480    6.6680   62.2730 N.3   270  GLY270     -0.1225
     34  CA         7.0560    7.7880   61.6730 C.3   270  GLY270      0.1811
     35  C          8.1000    8.3930   62.6010 C.2   270  GLY270      0.2280
     36  O          8.5440    9.5280   62.4010 O.2   270  GLY270     -0.2866
     37  N         11.0890    7.4470   62.9110 N.3   272  HIS272     -0.1226
     38  CA        12.4000    7.3290   62.2860 C.3   272  HIS272      0.1752
     39  C         12.1540    6.8200   60.8720 C.2   272  HIS272      0.2597
     40  O         11.0490    6.3830   60.5470 O.2   272  HIS272     -0.2718
     41  CB        13.2720    6.3510   63.0890 C.3   272  HIS272      0.0759
     42  CG        14.7070    6.3060   62.6590 C.ar  272  HIS272      0.0818
     43  ND1       15.4330    7.4360   62.3510 N.ar  272  HIS272     -0.2268
     44  CD2       15.5640    5.2660   62.5350 C.ar  272  HIS272      0.1154
     45  CE1       16.6740    7.0940   62.0570 C.ar  272  HIS272      0.1986
     46  NE2       16.7790    5.7820   62.1610 N.ar  272  HIS272     -0.2212
     47  N         13.1720    6.8960   60.0240 N.am  273  GLY273     -0.1942
     48  CA        13.0040    6.4350   58.6610 C.3   273  GLY273      0.2014
     49  C         14.2540    6.6210   57.8290 C.2   273  GLY273      0.2640
     50  O         15.3210    6.9340   58.3660 O.2   273  GLY273     -0.2714
     51  N         14.1060    6.4310   56.5170 N.am  274  THR274     -0.1936
     52  CA        15.2080    6.5510   55.5640 C.3   274  THR274      0.2028
     53  C         14.7120    6.2730   54.1370 C.2   274  THR274      0.2643
     54  O         13.9020    5.3730   53.9230 O.2   274  THR274     -0.2714
     55  CB        16.3290    5.5490   55.8980 C.3   274  THR274      0.1808
     56  OG1       17.2540    5.4720   54.8030 O.3   274  THR274     -0.2208
     57  CG2       15.7450    4.1680   56.1650 C.3   274  THR274      0.0379
     58  N         15.1960    7.0440   53.1700 N.am  275  THR275     -0.1936
     59  CA        14.7870    6.8630   51.7780 C.3   275  THR275      0.2028
     60  C         15.3070    5.5450   51.2000 C.2   275  THR275      0.2642
     61  O         14.5320    4.6990   50.7530 O.2   275  THR275     -0.2714
     62  CB        15.3050    8.0220   50.8780 C.3   275  THR275      0.1808
     63  OG1       14.6700    9.2470   51.2510 O.3   275  THR275     -0.2208
     64  CG2       15.0090    7.7360   49.4040 C.3   275  THR275      0.0379
     65  N         16.6290    5.3960   51.2120 N.am  276  PHE276     -0.1973
     66  CA        17.3160    4.2210   50.6810 C.3   276  PHE276      0.1639
     67  C         17.2420    2.9650   51.5410 C.2   276  PHE276      0.2290
     68  O         17.2600    1.8570   51.0170 O.2   276  PHE276     -0.2864
     69  CB        18.7940    4.5530   50.4350 C.3   276  PHE276      0.0560
     70  CG        19.0310    5.5250   49.3100 C.ar  276  PHE276     -0.0200
     71  CD1       20.0220    6.4960   49.4170 C.ar  276  PHE276     -0.0042
     72  CD2       18.2930    5.4450   48.1260 C.ar  276  PHE276     -0.0042
     73  CE1       20.2800    7.3700   48.3740 C.ar  276  PHE276     -0.0003
     74  CE2       18.5440    6.3170   47.0700 C.ar  276  PHE276     -0.0003
     75  CZ        19.5410    7.2830   47.1930 C.ar  276  PHE276     -0.0000
@<TRIPOS>BOND
     1    74    75   ar
     2    74    72   ar
     3    75    73   ar
     4     7     1    1
     5     7     6    1
     6    72    70   ar
     7    73    71   ar
     8     1     2    1
     9     6     5    1
    10    70    71   ar
    11    70    69    1
    12    64    62    1
    13     2     5    1
    14     2     3    1
    15     4     3    2
    16    69    66    1
    17    66    65    1
    18    66    67    1
    19    61    60    2
    20     3     8   am
    21    62    63    1
    22    62    59    1
    23    68    67    2
    24    22    21    1
    25    60    65   am
    26    60    59    1
    27    19    20    2
    28    19    18    1
    29    59    58    1
    30     8     9    1
    31    21    18    1
    32    21    23    1
    33    17    18    1
    34    17    10   am
    35     9    10    1
    36     9    12    1
    37    58    53   am
    38    10    11    2
    39    54    53    2
    40    53    52    1
    41    12    13    1
    42    16    14   am
    43    13    14    1
    44    56    55    1
    45    14    15    2
    46    52    55    1
    47    52    51    1
    48    55    57    1
    49    31    30   ar
    50    32    30   ar
    51    51    49   am
    52    30    29    1
    53    49    50    2
    54    49    48    1
    55    29    28    1
    56    48    47    1
    57    28    25    1
    58    47    39   am
    59    24    25    1
    60    25    26    1
    61    40    39    2
    62    39    38    1
    63    26    27    2
    64    34    33    1
    65    34    35    1
    66    45    46   ar
    67    45    43   ar
    68    46    44   ar
    69    38    37    1
    70    38    41    1
    71    43    42   ar
    72    36    35    2
    73    44    42   ar
    74    42    41    1
