@<TRIPOS>MOLECULE
tmp/1wkgA00.pdb
 149 142 0 0 0
SMALL
GASTEIGER

@<TRIPOS>ATOM
      1  N         40.8120   13.0930   52.9530 N.3    16  TYR16      -0.1241
      2  CA        41.4430   11.7760   52.8680 C.3    16  TYR16       0.1605
      3  C         42.9130   11.7860   52.4590 C.2    16  TYR16       0.2264
      4  O         43.3540   12.6640   51.7110 O.2    16  TYR16      -0.2867
      5  CB        40.6930   10.8950   51.8660 C.3    16  TYR16       0.0534
      6  CG        39.2470   10.6470   52.2030 C.ar   16  TYR16      -0.0201
      7  CD1       38.2260   11.1990   51.4290 C.ar   16  TYR16      -0.0009
      8  CD2       38.8940    9.8390   53.2900 C.ar   16  TYR16      -0.0009
      9  CE1       36.8940   10.9500   51.7270 C.ar   16  TYR16       0.0417
     10  CE2       37.5710    9.5860   53.5930 C.ar   16  TYR16       0.0417
     11  CZ        36.5720   10.1390   52.8100 C.ar   16  TYR16       0.1957
     12  OH        35.2540    9.8600   53.0990 O.3    16  TYR16      -0.2866
     13  N         38.1540   -1.9230   53.6870 N.3    46  TYR46      -0.1241
     14  CA        37.9340   -1.7520   55.1330 C.3    46  TYR46       0.1605
     15  C         37.0270   -2.8380   55.6710 C.2    46  TYR46       0.2264
     16  O         36.0840   -2.5450   56.4050 O.2    46  TYR46      -0.2867
     17  CB        37.2830   -0.4030   55.4960 C.3    46  TYR46       0.0534
     18  CG        38.0460    0.8350   55.0940 C.ar   46  TYR46      -0.0201
     19  CD1       39.4370    0.8400   55.0410 C.ar   46  TYR46      -0.0009
     20  CD2       37.3690    1.9980   54.7340 C.ar   46  TYR46      -0.0009
     21  CE1       40.1380    1.9650   54.6220 C.ar   46  TYR46       0.0417
     22  CE2       38.0610    3.1380   54.3200 C.ar   46  TYR46       0.0417
     23  CZ        39.4480    3.1070   54.2580 C.ar   46  TYR46       0.1957
     24  OH        40.1370    4.1930   53.7670 O.3    46  TYR46      -0.2866
     25  N         24.3330    2.2430   55.8880 N.3   104  SER104     -0.1202
     26  CA        25.7000    2.3250   56.3860 C.3   104  SER104      0.2020
     27  C         25.8050    1.9250   57.8550 C.2   104  SER104      0.2619
     28  O         24.7990    1.6770   58.5200 O.2   104  SER104     -0.2717
     29  CB        26.2260    3.7490   56.2300 C.3   104  SER104      0.2103
     30  OG        25.5010    4.6470   57.0580 O.3   104  SER104     -0.2182
     31  N         27.0340    1.8710   58.3550 N.am  105  GLY105     -0.1942
     32  CA        27.2360    1.5090   59.7420 C.3   105  GLY105      0.2014
     33  C         26.7960    2.6350   60.6530 C.2   105  GLY105      0.2639
     34  O         26.0780    2.4110   61.6280 O.2   105  GLY105     -0.2714
     35  N         27.2170    3.8510   60.3210 N.am  106  THR106     -0.1950
     36  CA        26.8780    5.0180   61.1140 C.3   106  THR106      0.1897
     37  C         25.3660    5.2020   61.2000 C.2   106  THR106      0.2313
     38  O         24.8540    5.6100   62.2390 O.2   106  THR106     -0.2863
     39  CB        27.5290    6.3010   60.5490 C.3   106  THR106      0.1794
     40  OG1       27.4410    7.3420   61.5260 O.3   106  THR106     -0.2208
     41  CG2       26.8320    6.7590   59.2730 C.3   106  THR106      0.0378
     42  N         34.7580    3.3020   68.0690 N.3   132  PHE132     -0.1227
     43  CA        34.3350    4.0070   66.8550 C.3   132  PHE132      0.1736
     44  C         32.9290    3.5410   66.4560 C.2   132  PHE132      0.2596
     45  O         32.6890    2.3490   66.2960 O.2   132  PHE132     -0.2718
     46  CB        35.3130    3.7390   65.7070 C.3   132  PHE132      0.0547
     47  CG        35.0850    4.6150   64.5060 C.ar  132  PHE132     -0.0202
     48  CD1       35.6260    5.8910   64.4460 C.ar  132  PHE132     -0.0042
     49  CD2       34.2770    4.1830   63.4560 C.ar  132  PHE132     -0.0042
     50  CE1       35.3610    6.7270   63.3560 C.ar  132  PHE132     -0.0003
     51  CE2       34.0070    5.0160   62.3640 C.ar  132  PHE132     -0.0003
     52  CZ        34.5460    6.2810   62.3160 C.ar  132  PHE132     -0.0000
     53  N         32.0030    4.4840   66.3030 N.am  133  SER133     -0.1938
     54  CA        30.6260    4.1490   65.9480 C.3   133  SER133      0.2055
     55  C         30.1320    4.7810   64.6530 C.2   133  SER133      0.2644
     56  O         29.1230    4.3570   64.1090 O.2   133  SER133     -0.2714
     57  CB        29.6680    4.5480   67.0820 C.3   133  SER133      0.2130
     58  OG        29.9180    3.8010   68.2550 O.3   133  SER133     -0.2179
     59  N         30.8290    5.7990   64.1670 N.am  134  GLY134     -0.1939
     60  CA        30.4000    6.4360   62.9360 C.3   134  GLY134      0.2014
     61  C         30.7370    7.9080   62.9090 C.2   134  GLY134      0.2638
     62  O         31.1590    8.4740   63.9270 O.2   134  GLY134     -0.2714
     63  N         30.5220    8.5310   61.7550 N.am  135  ARG135     -0.1977
     64  CA        30.8320    9.9400   61.5740 C.3   135  ARG135      0.1597
     65  C         29.6290   10.8860   61.6270 C.2   135  ARG135      0.2287
     66  O         29.8070   12.0940   61.7580 O.2   135  ARG135     -0.2864
     67  CB        31.5810   10.1320   60.2510 C.3   135  ARG135      0.0334
     68  CG        32.9530    9.4760   60.1910 C.3   135  ARG135      0.0492
     69  CD        33.9930   10.2330   61.0260 C.3   135  ARG135      0.2205
     70  NE        35.3510    9.8730   60.6180 N.pl3 135  ARG135     -0.0865
     71  CZ        36.4510   10.5310   60.9680 C.cat 135  ARG135      0.5346
     72  NH1       36.3780   11.6000   61.7480 N.pl3 135  ARG135      0.1354
     73  NH2       37.6290   10.1270   60.5110 N.pl3 135  ARG135      0.1354
     74  N         38.3610   13.7780   66.4400 N.3   148  TYR148     -0.1241
     75  CA        37.2270   13.5340   65.5390 C.3   148  TYR148      0.1605
     76  C         35.9700   14.2610   66.0300 C.2   148  TYR148      0.2264
     77  O         35.0520   14.5260   65.2460 O.2   148  TYR148     -0.2867
     78  CB        36.8960   12.0390   65.4580 C.3   148  TYR148      0.0534
     79  CG        37.9170   11.1840   64.7530 C.ar  148  TYR148     -0.0201
     80  CD1       37.7290    9.8110   64.6390 C.ar  148  TYR148     -0.0009
     81  CD2       39.0800   11.7370   64.2110 C.ar  148  TYR148     -0.0009
     82  CE1       38.6770    9.0010   64.0060 C.ar  148  TYR148      0.0417
     83  CE2       40.0320   10.9360   63.5780 C.ar  148  TYR148      0.0417
     84  CZ        39.8240    9.5710   63.4840 C.ar  148  TYR148      0.1957
     85  OH        40.7770    8.7640   62.9110 O.3   148  TYR148     -0.2866
     86  N         32.0050   -2.5470   70.7560 N.3   184  GLU184     -0.1245
     87  CA        32.4110   -3.3930   69.6400 C.3   184  GLU184      0.1567
     88  C         32.9860   -4.6490   70.3160 C.2   184  GLU184      0.2260
     89  O         33.7310   -4.5420   71.2870 O.2   184  GLU184     -0.2867
     90  CB        33.5150   -2.7100   68.8220 C.3   184  GLU184      0.0388
     91  CG        33.1630   -1.3460   68.2490 C.3   184  GLU184      0.1160
     92  CD        34.3990   -0.5500   67.8440 C.2   184  GLU184      0.3649
     93  OE1       35.1020   -0.9450   66.8860 O.co2 184  GLU184     -0.2457
     94  OE2       34.6780    0.4750   68.4960 O.co2 184  GLU184     -0.2457
     95  N         35.1670   -6.3920   69.3340 N.3   186  VAL186     -0.1245
     96  CA        36.6010   -6.2560   69.0850 C.3   186  VAL186      0.1561
     97  C         36.7270   -4.8670   68.4910 C.2   186  VAL186      0.2260
     98  O         36.1110   -4.5780   67.4660 O.2   186  VAL186     -0.2867
     99  CB        37.1220   -7.2680   68.0500 C.3   186  VAL186      0.0252
    100  CG1       38.6330   -7.1080   67.8990 C.3   186  VAL186      0.0019
    101  CG2       36.7630   -8.6900   68.4710 C.3   186  VAL186      0.0019
    102  N         38.8860    0.3050   64.5620 N.3   189  GLU189     -0.1245
    103  CA        39.6440    1.5410   64.4370 C.3   189  GLU189      0.1567
    104  C         40.5360    1.8120   65.6580 C.2   189  GLU189      0.2260
    105  O         41.5390    2.5200   65.5550 O.2   189  GLU189     -0.2867
    106  CB        38.6960    2.7210   64.2250 C.3   189  GLU189      0.0388
    107  CG        37.7770    2.5980   63.0180 C.3   189  GLU189      0.1160
    108  CD        38.5180    2.1800   61.7650 C.2   189  GLU189      0.3649
    109  OE1       38.3740    1.0010   61.3810 O.co2 189  GLU189     -0.2457
    110  OE2       39.2430    3.0240   61.1820 O.co2 189  GLU189     -0.2457
    111  N         27.9880   -3.3950   68.4010 N.3   217  ASP217     -0.1239
    112  CA        28.3670   -2.9690   67.0600 C.3   217  ASP217      0.1674
    113  C         29.2630   -4.0010   66.3950 C.2   217  ASP217      0.2266
    114  O         30.4570   -4.0930   66.6910 O.2   217  ASP217     -0.2867
    115  CB        29.0770   -1.6090   67.1290 C.3   217  ASP217      0.1410
    116  CG        29.5630   -1.1210   65.7670 C.2   217  ASP217      0.3668
    117  OD1       29.9440    0.0630   65.6660 O.co2 217  ASP217     -0.2456
    118  OD2       29.5730   -1.9130   64.8070 O.co2 217  ASP217     -0.2456
    119  N         29.6480   -4.0700   63.1060 N.3   219  ILE219     -0.1231
    120  CA        29.7670   -3.5440   61.7550 C.3   219  ILE219      0.1692
    121  C         31.0540   -4.0200   61.1000 C.2   219  ILE219      0.2591
    122  O         31.0820   -4.2980   59.9050 O.2   219  ILE219     -0.2718
    123  CB        29.6850   -2.0010   61.7690 C.3   219  ILE219      0.0266
    124  CG1       28.2420   -1.5920   62.0710 C.3   219  ILE219      0.0019
    125  CG2       30.1460   -1.4220   60.4300 C.3   219  ILE219      0.0020
    126  CD1       28.0760   -0.1650   62.4700 C.3   219  ILE219      0.0001
    127  N         32.1110   -4.1480   61.8880 N.am  220  GLN220     -0.1979
    128  CA        33.3860   -4.6000   61.3550 C.3   220  GLN220      0.1601
    129  C         33.6500   -6.0880   61.6370 C.2   220  GLN220      0.2287
    130  O         34.1720   -6.8050   60.7810 O.2   220  GLN220     -0.2864
    131  CB        34.5200   -3.7200   61.9100 C.3   220  GLN220      0.0394
    132  CG        35.9260   -4.0970   61.4280 C.3   220  GLN220      0.0908
    133  CD        36.9520   -2.9980   61.6720 C.2   220  GLN220      0.2608
    134  OE1       38.1520   -3.2620   61.7910 O.2   220  GLN220     -0.2717
    135  NE2       36.4820   -1.7580   61.7310 N.am  220  GLN220     -0.0878
    136  N         26.9170   -3.7550   59.0770 N.3   245  ALA245     -0.1231
    137  CA        27.1490   -2.9920   57.8510 C.3   245  ALA245      0.1694
    138  C         28.2900   -3.6350   57.0590 C.2   245  ALA245      0.2591
    139  O         28.4320   -4.8600   57.0440 O.2   245  ALA245     -0.2718
    140  CB        27.4870   -1.5410   58.1830 C.3   245  ALA245      0.0304
    141  N         29.0940   -2.8030   56.4030 N.am  246  LYS246     -0.1980
    142  CA        30.2330   -3.2750   55.6200 C.3   246  LYS246      0.1596
    143  C         29.9610   -4.5010   54.7340 C.2   246  LYS246      0.2287
    144  O         29.3750   -4.3760   53.6590 O.2   246  LYS246     -0.2864
    145  CB        31.4270   -3.5570   56.5510 C.3   246  LYS246      0.0298
    146  CG        32.0880   -2.3110   57.1170 C.3   246  LYS246      0.0038
    147  CD        33.3160   -2.6690   57.9550 C.3   246  LYS246      0.0206
    148  CE        33.8960   -1.4600   58.6950 C.3   246  LYS246      0.1093
    149  NZ        34.4100   -0.3960   57.7770 N.3   246  LYS246     -0.1314
@<TRIPOS>BOND
     1     7     9   ar
     2     7     6   ar
     3     4     3    2
     4     9    11   ar
     5     5     6    1
     6     5     2    1
     7     6     8   ar
     8     3     2    1
     9    11    12    1
    10    11    10   ar
    11     2     1    1
    12     8    10   ar
    13   144   143    2
    14    13    14    1
    15    24    23    1
    16    23    22   ar
    17    23    21   ar
    18    22    20   ar
    19    21    19   ar
    20   143   142    1
    21    20    18   ar
    22    19    18   ar
    23    18    17    1
    24    14    17    1
    25    14    15    1
    26   142   141    1
    27   142   145    1
    28    15    16    2
    29    25    26    1
    30    29    26    1
    31    29    30    1
    32    26    27    1
    33   141   138   am
    34   145   146    1
    35   139   138    2
    36   138   137    1
    37   146   147    1
    38   149   148    1
    39   137   140    1
    40   137   136    1
    41    27    31   am
    42    27    28    2
    43   147   148    1
    44    31    32    1
    45    41    39    1
    46    32    33    1
    47   122   121    2
    48    68    67    1
    49    68    69    1
    50    67    64    1
    51    35    33   am
    52    35    36    1
    53   125   123    1
    54    73    71    1
    55    39    36    1
    56    39    40    1
    57    70    71    2
    58    70    69    1
    59    33    34    2
    60   130   129    2
    61    71    72    1
    62   121   120    1
    63   121   127   am
    64    36    37    1
    65   110   108   ar
    66    37    38    2
    67   128   129    1
    68   128   127    1
    69   128   131    1
    70   109   108   ar
    71   132   133    1
    72   132   131    1
    73    64    65    1
    74    64    63    1
    75    65    66    2
    76   133   135   am
    77   133   134    2
    78    63    61   am
    79   120   123    1
    80   120   119    1
    81   108   107    1
    82   123   124    1
    83   124   126    1
    84    52    51   ar
    85    52    50   ar
    86    51    49   ar
    87    61    60    1
    88    61    62    2
    89    85    84    1
    90    60    59    1
    91   107   106    1
    92    50    48   ar
    93    49    47   ar
    94    84    83   ar
    95    84    82   ar
    96    83    81   ar
    97    82    80   ar
    98    56    55    2
    99    59    55   am
   100    81    79   ar
   101   106   103    1
   102   103   102    1
   103   103   104    1
   104    48    47   ar
   105    47    46    1
   106    80    79   ar
   107    55    54    1
   108    79    78    1
   109   118   116   ar
   110    77    76    2
   111    78    75    1
   112    75    76    1
   113    75    74    1
   114   105   104    2
   115   117   116   ar
   116    46    43    1
   117   116   115    1
   118    54    53    1
   119    54    57    1
   120    45    44    2
   121    53    44   am
   122   113   114    2
   123   113   112    1
   124    44    43    1
   125    43    42    1
   126    93    92   ar
   127   112   115    1
   128   112   111    1
   129    57    58    1
   130    98    97    2
   131    92    91    1
   132    92    94   ar
   133   100    99    1
   134    99   101    1
   135    99    96    1
   136    91    90    1
   137    97    96    1
   138    90    87    1
   139    96    95    1
   140    87    88    1
   141    87    86    1
   142    88    89    2
