@<TRIPOS>MOLECULE
tmp/1wkhA00.pdb
 161 152 0 0 0
SMALL
GASTEIGER

@<TRIPOS>ATOM
      1  N         40.6370   13.1560   52.9600 N.3    16  TYR16      -0.1241
      2  CA        41.3250   11.8660   52.9310 C.3    16  TYR16       0.1605
      3  C         42.7810   11.9240   52.4640 C.2    16  TYR16       0.2264
      4  O         43.1870   12.8390   51.7390 O.2    16  TYR16      -0.2867
      5  CB        40.5890   10.8830   52.0120 C.3    16  TYR16       0.0534
      6  CG        39.1350   10.6490   52.3370 C.ar   16  TYR16      -0.0201
      7  CD1       38.1250   11.2370   51.5730 C.ar   16  TYR16      -0.0009
      8  CD2       38.7630    9.8110   53.3930 C.ar   16  TYR16      -0.0009
      9  CE1       36.7770   10.9920   51.8510 C.ar   16  TYR16       0.0417
     10  CE2       37.4260    9.5590   53.6790 C.ar   16  TYR16       0.0417
     11  CZ        36.4360   10.1500   52.9020 C.ar   16  TYR16       0.1957
     12  OH        35.1160    9.8730   53.1690 O.3    16  TYR16      -0.2866
     13  N         37.8630   -1.6930   53.7340 N.3    46  TYR46      -0.1241
     14  CA        37.7280   -1.6040   55.1880 C.3    46  TYR46       0.1605
     15  C         36.8350   -2.7130   55.7410 C.2    46  TYR46       0.2264
     16  O         35.8970   -2.4390   56.4820 O.2    46  TYR46      -0.2867
     17  CB        37.1400   -0.2560   55.6130 C.3    46  TYR46       0.0534
     18  CG        37.9090    0.9640   55.1680 C.ar   46  TYR46      -0.0201
     19  CD1       39.3000    0.9560   55.1040 C.ar   46  TYR46      -0.0009
     20  CD2       37.2420    2.1470   54.8510 C.ar   46  TYR46      -0.0009
     21  CE1       40.0070    2.0850   54.7360 C.ar   46  TYR46       0.0417
     22  CE2       37.9410    3.2910   54.4850 C.ar   46  TYR46       0.0417
     23  CZ        39.3230    3.2510   54.4290 C.ar   46  TYR46       0.1957
     24  OH        40.0240    4.3780   54.0600 O.3    46  TYR46      -0.2866
     25  N         24.4180    2.3370   55.9530 N.3   104  SER104     -0.1202
     26  CA        25.7860    2.4310   56.4440 C.3   104  SER104      0.2020
     27  C         25.8590    1.9870   57.9070 C.2   104  SER104      0.2619
     28  O         24.8390    1.7130   58.5320 O.2   104  SER104     -0.2717
     29  CB        26.2950    3.8710   56.3170 C.3   104  SER104      0.2103
     30  OG        25.4260    4.7840   56.9580 O.3   104  SER104     -0.2182
     31  N         27.0720    1.9060   58.4370 N.am  105  GLY105     -0.1942
     32  CA        27.2400    1.5120   59.8200 C.3   105  GLY105      0.2014
     33  C         26.8010    2.6380   60.7310 C.2   105  GLY105      0.2639
     34  O         26.0690    2.4220   61.6970 O.2   105  GLY105     -0.2714
     35  N         27.2370    3.8510   60.4120 N.am  106  THR106     -0.1950
     36  CA        26.8830    5.0090   61.2110 C.3   106  THR106      0.1897
     37  C         25.3640    5.1650   61.2790 C.2   106  THR106      0.2313
     38  O         24.8290    5.5600   62.3100 O.2   106  THR106     -0.2863
     39  CB        27.5370    6.2970   60.6590 C.3   106  THR106      0.1794
     40  OG1       27.3480    7.3620   61.5940 O.3   106  THR106     -0.2208
     41  CG2       26.9290    6.6930   59.3180 C.3   106  THR106      0.0378
     42  N         34.6740    3.2930   68.0150 N.3   132  PHE132     -0.1227
     43  CA        34.2390    4.0230   66.8280 C.3   132  PHE132      0.1736
     44  C         32.8430    3.5000   66.4690 C.2   132  PHE132      0.2596
     45  O         32.6370    2.2890   66.3620 O.2   132  PHE132     -0.2718
     46  CB        35.2120    3.7900   65.6640 C.3   132  PHE132      0.0547
     47  CG        34.9320    4.6510   64.4500 C.ar  132  PHE132     -0.0202
     48  CD1       35.3380    5.9790   64.4070 C.ar  132  PHE132     -0.0042
     49  CD2       34.2380    4.1330   63.3540 C.ar  132  PHE132     -0.0042
     50  CE1       35.0530    6.7760   63.2870 C.ar  132  PHE132     -0.0003
     51  CE2       33.9520    4.9200   62.2430 C.ar  132  PHE132     -0.0003
     52  CZ        34.3580    6.2330   62.2100 C.ar  132  PHE132     -0.0000
     53  N         31.8870    4.4060   66.2900 N.am  133  SER133     -0.1938
     54  CA        30.5160    4.0140   65.9700 C.3   133  SER133      0.2055
     55  C         29.9680    4.6520   64.6910 C.2   133  SER133      0.2644
     56  O         28.9100    4.2650   64.2050 O.2   133  SER133     -0.2714
     57  CB        29.5830    4.3760   67.1360 C.3   133  SER133      0.2130
     58  OG        29.9770    3.7460   68.3430 O.3   133  SER133     -0.2179
     59  N         30.6810    5.6330   64.1520 N.am  134  GLY134     -0.1939
     60  CA        30.2150    6.2960   62.9520 C.3   134  GLY134      0.2014
     61  C         30.6100    7.7520   62.9870 C.2   134  GLY134      0.2638
     62  O         31.0210    8.2550   64.0380 O.2   134  GLY134     -0.2714
     63  N         30.4770    8.4300   61.8490 N.am  135  ARG135     -0.1977
     64  CA        30.8480    9.8370   61.7370 C.3   135  ARG135      0.1597
     65  C         29.6730   10.8050   61.7420 C.2   135  ARG135      0.2287
     66  O         29.8710   12.0070   61.8990 O.2   135  ARG135     -0.2864
     67  CB        31.6940   10.0620   60.4790 C.3   135  ARG135      0.0334
     68  CG        33.0340    9.3300   60.4810 C.3   135  ARG135      0.0492
     69  CD        34.0250    9.9510   61.4670 C.3   135  ARG135      0.2205
     70  NE        35.3940    9.5050   61.1850 N.pl3 135  ARG135     -0.0865
     71  CZ        36.4580   10.3050   61.1660 C.cat 135  ARG135      0.5346
     72  NH1       36.3230   11.6050   61.4200 N.pl3 135  ARG135      0.1354
     73  NH2       37.6530    9.8060   60.8770 N.pl3 135  ARG135      0.1354
     74  N         31.8880   -2.5870   70.7780 N.3   184  GLU184     -0.1245
     75  CA        32.3260   -3.4240   69.6650 C.3   184  GLU184      0.1567
     76  C         32.8620   -4.7040   70.3140 C.2   184  GLU184      0.2260
     77  O         33.6360   -4.6330   71.2620 O.2   184  GLU184     -0.2867
     78  CB        33.4640   -2.7480   68.9020 C.3   184  GLU184      0.0388
     79  CG        33.1080   -1.4680   68.1800 C.3   184  GLU184      0.1160
     80  CD        34.3470   -0.6830   67.7990 C.2   184  GLU184      0.3649
     81  OE1       34.6950    0.2740   68.5220 O.co2 184  GLU184     -0.2457
     82  OE2       34.9880   -1.0400   66.7880 O.co2 184  GLU184     -0.2457
     83  N         37.8060   -2.1310   66.3720 N.3   188  GLY188     -0.1210
     84  CA        38.4980   -2.0610   65.0890 C.3   188  GLY188      0.1956
     85  C         39.5160   -0.9350   64.9680 C.2   188  GLY188      0.2611
     86  O         40.7270   -1.1770   65.0640 O.2   188  GLY188     -0.2717
     87  N         39.0350    0.2880   64.7350 N.am  189  GLU189     -0.1979
     88  CA        39.9070    1.4630   64.6230 C.3   189  GLU189      0.1602
     89  C         40.7160    1.5950   65.9070 C.2   189  GLU189      0.2287
     90  O         41.8730    2.0140   65.8870 O.2   189  GLU189     -0.2864
     91  CB        39.0780    2.7440   64.4360 C.3   189  GLU189      0.0415
     92  CG        38.6160    3.0350   63.0060 C.3   189  GLU189      0.1163
     93  CD        39.5900    3.9130   62.2290 C.2   189  GLU189      0.3649
     94  OE1       39.4630    4.0020   60.9900 O.co2 189  GLU189     -0.2457
     95  OE2       40.4780    4.5270   62.8580 O.co2 189  GLU189     -0.2457
     96  N         27.9720   -3.4870   68.3970 N.3   217  ASP217     -0.1239
     97  CA        28.3350   -3.0090   67.0690 C.3   217  ASP217      0.1674
     98  C         29.2010   -4.0380   66.3730 C.2   217  ASP217      0.2266
     99  O         30.3920   -4.1420   66.6410 O.2   217  ASP217     -0.2867
    100  CB        29.1050   -1.6890   67.1810 C.3   217  ASP217      0.1410
    101  CG        29.4940   -1.1140   65.8320 C.2   217  ASP217      0.3668
    102  OD1       29.7100   -1.8900   64.8760 O.co2 217  ASP217     -0.2456
    103  OD2       29.6020    0.1210   65.7320 O.co2 217  ASP217     -0.2456
    104  N         29.4580   -4.1390   63.0200 N.3   219  ILE219     -0.1231
    105  CA        29.5680   -3.6290   61.6660 C.3   219  ILE219      0.1692
    106  C         30.8660   -4.1390   61.0470 C.2   219  ILE219      0.2591
    107  O         30.9050   -4.4700   59.8620 O.2   219  ILE219     -0.2718
    108  CB        29.5350   -2.0870   61.6690 C.3   219  ILE219      0.0266
    109  CG1       28.1020   -1.6210   61.9420 C.3   219  ILE219      0.0019
    110  CG2       30.0790   -1.5360   60.3400 C.3   219  ILE219      0.0020
    111  CD1       27.9980   -0.2360   62.5300 C.3   219  ILE219      0.0001
    112  N         31.9180   -4.2230   61.8580 N.am  220  GLN220     -0.1979
    113  CA        33.2080   -4.7130   61.3830 C.3   220  GLN220      0.1601
    114  C         33.4770   -6.1810   61.7360 C.2   220  GLN220      0.2287
    115  O         34.1070   -6.9080   60.9630 O.2   220  GLN220     -0.2864
    116  CB        34.3510   -3.8370   61.9240 C.3   220  GLN220      0.0394
    117  CG        35.7410   -4.3110   61.5070 C.3   220  GLN220      0.0908
    118  CD        36.7500   -3.1730   61.3660 C.2   220  GLN220      0.2608
    119  OE1       36.4560   -2.1330   60.7690 O.2   220  GLN220     -0.2717
    120  NE2       37.9470   -3.3720   61.8980 N.am  220  GLN220     -0.0878
    121  N         26.8350   -3.8760   59.0240 N.3   245  ALA245     -0.1231
    122  CA        27.0870   -3.0800   57.8210 C.3   245  ALA245      0.1694
    123  C         28.2670   -3.6710   57.0490 C.2   245  ALA245      0.2591
    124  O         28.4290   -4.8870   57.0000 O.2   245  ALA245     -0.2718
    125  CB        27.3750   -1.6130   58.1890 C.3   245  ALA245      0.0304
    126  N         29.0830   -2.8070   56.4430 N.am  246  LYS246     -0.1980
    127  CA        30.2590   -3.2570   55.6910 C.3   246  LYS246      0.1596
    128  C         29.9560   -4.4230   54.7410 C.2   246  LYS246      0.2287
    129  O         29.3430   -4.2430   53.6930 O.2   246  LYS246     -0.2864
    130  CB        31.3740   -3.6810   56.6590 C.3   246  LYS246      0.0298
    131  CG        31.9660   -2.5630   57.5240 C.3   246  LYS246      0.0038
    132  CD        33.0300   -1.7700   56.7860 C.3   246  LYS246      0.0206
    133  CE        33.7050   -0.7430   57.6980 C.3   246  LYS246      0.1093
    134  NZ        34.2320   -1.4220   58.9110 N.3   246  LYS246     -0.1314
    135  N         45.8770   -1.6480   56.3300 N.3   355  LEU355     -0.1245
    136  CA        45.2660   -0.5210   57.0270 C.3   355  LEU355      0.1561
    137  C         46.0030   -0.2140   58.3190 C.2   355  LEU355      0.2260
    138  O         46.9640   -0.8870   58.6810 O.2   355  LEU355     -0.2867
    139  CB        43.8140   -0.8460   57.3990 C.3   355  LEU355      0.0270
    140  CG        42.7800   -1.1680   56.3260 C.3   355  LEU355      0.0019
    141  CD1       41.5260   -1.7300   56.9890 C.3   355  LEU355      0.0001
    142  CD2       42.4560    0.0860   55.5330 C.3   355  LEU355      0.0001
    143  N         46.6430   -2.8950   60.5690 N.3   363  ARG363     -0.1245
    144  CA        45.4550   -3.7450   60.6010 C.3   363  ARG363      0.1563
    145  C         45.2220   -4.5170   59.2970 C.2   363  ARG363      0.2260
    146  O         45.3910   -3.9770   58.2030 O.2   363  ARG363     -0.2867
    147  CB        44.2300   -2.8920   60.9300 C.3   363  ARG363      0.0307
    148  CG        42.9100   -3.6210   60.7980 C.3   363  ARG363      0.0489
    149  CD        41.7570   -2.7550   61.2810 C.3   363  ARG363      0.2205
    150  NE        41.9310   -1.3560   60.8970 N.pl3 363  ARG363     -0.0865
    151  CZ        40.9500   -0.4600   60.8520 C.cat 363  ARG363      0.5346
    152  NH1       39.7100   -0.8150   61.1620 N.pl3 363  ARG363      0.1354
    153  NH2       41.2100    0.7910   60.4990 N.pl3 363  ARG363      0.1354
    154  N         42.4090   -6.7330   57.1790 N.3   365  LEU365     -0.1245
    155  CA        41.0090   -7.1150   56.9920 C.3   365  LEU365      0.1561
    156  C         40.8540   -7.6830   55.5810 C.2   365  LEU365      0.2260
    157  O         40.0390   -7.2050   54.8010 O.2   365  LEU365     -0.2867
    158  CB        40.0890   -5.9000   57.1550 C.3   365  LEU365      0.0270
    159  CG        39.9960   -5.2110   58.5180 C.3   365  LEU365      0.0019
    160  CD1       39.1270   -3.9620   58.3930 C.3   365  LEU365      0.0001
    161  CD2       39.4100   -6.1710   59.5510 C.3   365  LEU365      0.0001
@<TRIPOS>BOND
     1     7     9   ar
     2     7     6   ar
     3     4     3    2
     4     9    11   ar
     5     5     6    1
     6     5     2    1
     7     6     8   ar
     8     3     2    1
     9    11    12    1
    10    11    10   ar
    11     2     1    1
    12     8    10   ar
    13   129   128    2
    14    13    14    1
    15    24    23    1
    16    23    22   ar
    17    23    21   ar
    18    22    20   ar
    19    21    19   ar
    20   128   127    1
    21   157   156    2
    22    20    18   ar
    23    19    18   ar
    24    18    17    1
    25    14    17    1
    26    14    15    1
    27   142   140    1
    28   156   155    1
    29   127   126    1
    30   127   130    1
    31    15    16    2
    32    25    26    1
    33    29    26    1
    34    29    30    1
    35   140   141    1
    36   140   139    1
    37   135   136    1
    38   126   123   am
    39    26    27    1
    40   130   131    1
    41   132   131    1
    42   132   133    1
    43   155   158    1
    44   155   154    1
    45   124   123    2
    46   136   139    1
    47   136   137    1
    48   123   122    1
    49   158   159    1
    50   133   134    1
    51   122   125    1
    52   122   121    1
    53    27    31   am
    54    27    28    2
    55   146   145    2
    56   137   138    2
    57   160   159    1
    58    31    32    1
    59   159   161    1
    60   145   144    1
    61    41    39    1
    62    32    33    1
    63   107   106    2
    64   110   108    1
    65    35    33   am
    66    35    36    1
    67    67    68    1
    68    67    64    1
    69    68    69    1
    70   153   151    1
    71   143   144    1
    72   144   147    1
    73    39    36    1
    74    39    40    1
    75    33    34    2
    76   119   118    2
    77   148   147    1
    78   148   149    1
    79   151   150    2
    80   151   152    1
    81    73    71    1
    82   150   149    1
    83   115   114    2
    84    94    93   ar
    85   106   105    1
    86   106   112   am
    87    71    70    2
    88    71    72    1
    89    70    69    1
    90    36    37    1
    91    37    38    2
    92   118   117    1
    93   118   120   am
    94   113   114    1
    95   113   112    1
    96   113   116    1
    97   117   116    1
    98   105   108    1
    99   105   104    1
   100   108   109    1
   101    64    65    1
   102    64    63    1
   103    65    66    2
   104    63    61   am
   105   109   111    1
   106    52    51   ar
   107    52    50   ar
   108    93    95   ar
   109    93    92    1
   110    51    49   ar
   111    60    61    1
   112    60    59    1
   113    61    62    2
   114    92    91    1
   115    50    48   ar
   116    49    47   ar
   117    59    55   am
   118    56    55    2
   119    48    47   ar
   120    91    88    1
   121    47    46    1
   122    88    87    1
   123    88    89    1
   124    55    54    1
   125    87    85   am
   126   102   101   ar
   127    85    86    2
   128    85    84    1
   129    84    83    1
   130    46    43    1
   131   103   101   ar
   132   101   100    1
   133    90    89    2
   134    54    53    1
   135    54    57    1
   136    53    44   am
   137    45    44    2
   138    98    99    2
   139    98    97    1
   140    44    43    1
   141    82    80   ar
   142    43    42    1
   143    97   100    1
   144    97    96    1
   145    57    58    1
   146    80    79    1
   147    80    81   ar
   148    79    78    1
   149    78    75    1
   150    75    76    1
   151    75    74    1
   152    76    77    2
