@<TRIPOS>MOLECULE
tmp/1wkkA00.pdb
 163 157 0 0 0
SMALL
GASTEIGER

@<TRIPOS>ATOM
      1  N         18.2480   63.8410   44.7990 N.3     9  LYS9       -0.1245
      2  CA        19.6480   64.2370   44.7170 C.3     9  LYS9        0.1561
      3  C         20.1100   65.0140   45.9400 C.2     9  LYS9        0.2260
      4  O         19.2970   65.4400   46.7510 O.2     9  LYS9       -0.2867
      5  CB        19.8630   65.0580   43.4470 C.3     9  LYS9        0.0271
      6  CG        19.4650   64.3160   42.1850 C.3     9  LYS9        0.0035
      7  CD        19.7760   65.1200   40.9260 C.3     9  LYS9        0.0206
      8  CE        19.4460   64.3140   39.6860 C.3     9  LYS9        0.1093
      9  NZ        19.9140   64.9970   38.4620 N.3     9  LYS9       -0.1314
     10  N         26.6970   54.8930   36.9910 N.3    48  HIS48      -0.1226
     11  CA        25.3570   55.4330   36.7490 C.3    48  HIS48       0.1752
     12  C         25.3380   56.3850   35.5560 C.2    48  HIS48       0.2596
     13  O         24.4940   56.2640   34.6700 O.2    48  HIS48      -0.2718
     14  CB        24.8400   56.1630   37.9970 C.3    48  HIS48       0.0759
     15  CG        23.4940   56.8020   37.8170 C.ar   48  HIS48       0.0818
     16  ND1       22.3720   56.0900   37.4500 N.ar   48  HIS48      -0.2268
     17  CD2       23.0970   58.0910   37.9360 C.ar   48  HIS48       0.1154
     18  CE1       21.3430   56.9120   37.3480 C.ar   48  HIS48       0.1986
     19  NE2       21.7570   58.1320   37.6370 N.ar   48  HIS48      -0.2212
     20  N         26.2720   57.3290   35.5390 N.am   49  TYR49      -0.1976
     21  CA        26.3620   58.2990   34.4560 C.3    49  TYR49       0.1639
     22  C         27.3770   57.9130   33.3730 C.2    49  TYR49       0.2290
     23  O         27.9220   58.7850   32.6920 O.2    49  TYR49      -0.2864
     24  CB        26.7300   59.6730   35.0180 C.3    49  TYR49       0.0560
     25  CG        25.6360   60.3290   35.8220 C.ar   49  TYR49      -0.0198
     26  CD1       24.3940   60.6000   35.2510 C.ar   49  TYR49      -0.0009
     27  CD2       25.8510   60.7110   37.1460 C.ar   49  TYR49      -0.0009
     28  CE1       23.3960   61.2380   35.9730 C.ar   49  TYR49       0.0417
     29  CE2       24.8550   61.3500   37.8800 C.ar   49  TYR49       0.0417
     30  CZ        23.6310   61.6130   37.2850 C.ar   49  TYR49       0.1957
     31  OH        22.6490   62.2730   37.9900 O.3    49  TYR49      -0.2866
     32  N         26.9670   56.9100   30.6110 N.3    51  GLU51      -0.1231
     33  CA        26.4630   57.4520   29.3590 C.3    51  GLU51       0.1699
     34  C         27.1800   58.7390   28.9590 C.2    51  GLU51       0.2592
     35  O         27.4700   58.9530   27.7850 O.2    51  GLU51      -0.2718
     36  CB        24.9610   57.7220   29.5050 C.3    51  GLU51       0.0402
     37  CG        24.2660   58.2510   28.2620 C.3    51  GLU51       0.1161
     38  CD        22.7840   58.5180   28.5010 C.2    51  GLU51       0.3649
     39  OE1       22.0860   57.6020   28.9890 O.co2  51  GLU51      -0.2457
     40  OE2       22.3150   59.6380   28.1990 O.co2  51  GLU51      -0.2457
     41  N         27.4740   59.5880   29.9380 N.am   52  HIS52      -0.1976
     42  CA        28.1240   60.8650   29.6630 C.3    52  HIS52       0.1656
     43  C         29.5990   60.9180   30.0480 C.2    52  HIS52       0.2291
     44  O         30.1290   62.0000   30.2940 O.2    52  HIS52      -0.2864
     45  CB        27.3890   61.9970   30.3990 C.3    52  HIS52       0.0771
     46  CG        25.8970   61.8490   30.4190 C.ar   52  HIS52       0.0820
     47  ND1       25.1470   61.6770   29.2750 N.ar   52  HIS52      -0.2267
     48  CD2       25.0150   61.8590   31.4470 C.ar   52  HIS52       0.1154
     49  CE1       23.8690   61.5870   29.5990 C.ar   52  HIS52       0.1986
     50  NE2       23.7620   61.6940   30.9100 N.ar   52  HIS52      -0.2212
     51  N         30.9440   67.8520   30.7150 N.3    57  PHE57      -0.1241
     52  CA        30.2320   68.2010   31.9440 C.3    57  PHE57       0.1605
     53  C         30.1960   67.0330   32.9300 C.2    57  PHE57       0.2264
     54  O         29.6860   67.1610   34.0440 O.2    57  PHE57      -0.2867
     55  CB        28.8040   68.6570   31.6140 C.3    57  PHE57       0.0534
     56  CG        27.9210   67.5700   31.0600 C.ar   57  PHE57      -0.0203
     57  CD1       27.3830   66.5930   31.8930 C.ar   57  PHE57      -0.0042
     58  CD2       27.6190   67.5270   29.7040 C.ar   57  PHE57      -0.0042
     59  CE1       26.5570   65.5910   31.3820 C.ar   57  PHE57      -0.0003
     60  CE2       26.7930   66.5290   29.1840 C.ar   57  PHE57      -0.0003
     61  CZ        26.2620   65.5600   30.0250 C.ar   57  PHE57      -0.0000
     62  N         29.1980   66.7520   36.8850 N.3    61  LEU61      -0.1245
     63  CA        27.9900   65.9580   37.0420 C.3    61  LEU61       0.1561
     64  C         28.1970   64.9480   38.1630 C.2    61  LEU61       0.2260
     65  O         27.3110   64.7310   38.9890 O.2    61  LEU61      -0.2867
     66  CB        27.6820   65.2120   35.7450 C.3    61  LEU61       0.0270
     67  CG        26.2300   64.8070   35.4950 C.3    61  LEU61       0.0019
     68  CD1       26.1700   63.8390   34.3300 C.3    61  LEU61       0.0001
     69  CD2       25.6490   64.1680   36.7320 C.3    61  LEU61       0.0001
     70  N          7.6370   59.8080   36.0630 N.3    85  ARG85      -0.1245
     71  CA         8.2840   60.6970   35.1210 C.3    85  ARG85       0.1563
     72  C          7.4470   61.9620   34.9960 C.2    85  ARG85       0.2260
     73  O          7.9680   63.0770   35.0350 O.2    85  ARG85      -0.2867
     74  CB         8.4010   60.0090   33.7700 C.3    85  ARG85       0.0307
     75  CG         9.5990   59.1060   33.6540 C.3    85  ARG85       0.0489
     76  CD        10.6570   59.7990   32.8290 C.3    85  ARG85       0.2205
     77  NE        11.9540   59.8330   33.4960 N.pl3  85  ARG85      -0.0865
     78  CZ        13.0360   60.4220   32.9910 C.cat  85  ARG85       0.5346
     79  NH1       14.1710   60.3980   33.6740 N.pl3  85  ARG85       0.1354
     80  NH2       12.9850   61.0310   31.8090 N.pl3  85  ARG85       0.1354
     81  N         13.1620   67.6850   32.8620 N.3    91  THR91      -0.1203
     82  CA        14.4700   67.6860   33.5020 C.3    91  THR91       0.1994
     83  C         14.9180   69.1020   33.8210 C.2    91  THR91       0.2617
     84  O         15.3350   69.3860   34.9430 O.2    91  THR91      -0.2717
     85  CB        15.5220   67.0080   32.6100 C.3    91  THR91       0.1784
     86  OG1       15.0640   65.6990   32.2570 O.3    91  THR91      -0.2211
     87  CG2       16.8480   66.8720   33.3510 C.3    91  THR91       0.0376
     88  N         14.8410   69.9820   32.8260 N.am   92  HIS92      -0.1975
     89  CA        15.2110   71.3840   33.0010 C.3    92  HIS92       0.1656
     90  C         14.0350   72.0740   33.6830 C.2    92  HIS92       0.2291
     91  O         12.9760   72.2430   33.0770 O.2    92  HIS92      -0.2864
     92  CB        15.4640   72.0480   31.6460 C.3    92  HIS92       0.0771
     93  CG        16.6830   71.5430   30.9370 C.ar   92  HIS92       0.0820
     94  ND1       16.8670   70.2130   30.6210 N.ar   92  HIS92      -0.2267
     95  CD2       17.7750   72.1950   30.4680 C.ar   92  HIS92       0.1154
     96  CE1       18.0180   70.0680   29.9870 C.ar   92  HIS92       0.1986
     97  NE2       18.5880   71.2550   29.8810 N.ar   92  HIS92      -0.2212
     98  N          9.8510   69.1340   40.0820 N.3   102  ARG102     -0.1245
     99  CA        10.8850   70.0740   39.6490 C.3   102  ARG102      0.1563
    100  C         10.2790   71.4570   39.4400 C.2   102  ARG102      0.2260
    101  O         10.9050   72.4770   39.7300 O.2   102  ARG102     -0.2867
    102  CB        11.5360   69.6120   38.3520 C.3   102  ARG102      0.0307
    103  CG        12.3080   68.3210   38.4570 C.3   102  ARG102      0.0489
    104  CD        13.4240   68.3260   37.4410 C.3   102  ARG102      0.2205
    105  NE        14.1780   67.0790   37.4150 N.pl3 102  ARG102     -0.0865
    106  CZ        13.7660   65.9680   36.8200 C.cat 102  ARG102      0.5346
    107  NH1       12.5960   65.9420   36.1990 N.pl3 102  ARG102      0.1354
    108  NH2       14.5360   64.8900   36.8320 N.pl3 102  ARG102      0.1354
    109  N         19.0250   73.4640   36.1220 N.3   109  ILE109     -0.1231
    110  CA        19.2150   72.0990   35.6200 C.3   109  ILE109      0.1692
    111  C         20.3160   71.3430   36.3720 C.2   109  ILE109      0.2592
    112  O         20.2090   70.1350   36.5950 O.2   109  ILE109     -0.2718
    113  CB        19.5280   72.1000   34.0950 C.3   109  ILE109      0.0266
    114  CG1       19.8670   70.6810   33.6180 C.3   109  ILE109      0.0019
    115  CG2       20.6770   73.0460   33.7960 C.3   109  ILE109      0.0020
    116  CD1       18.7800   69.6630   33.8640 C.3   109  ILE109      0.0001
    117  N         21.3720   72.0540   36.7610 N.am  110  ASP110     -0.1974
    118  CA        22.4710   71.4420   37.5040 C.3   110  ASP110      0.1709
    119  C         21.9080   70.7440   38.7380 C.2   110  ASP110      0.2293
    120  O         22.2530   69.6010   39.0410 O.2   110  ASP110     -0.2864
    121  CB        23.4790   72.5070   37.9480 C.3   110  ASP110      0.1436
    122  CG        24.0460   73.3080   36.7860 C.2   110  ASP110      0.3671
    123  OD1       24.8950   72.7710   36.0400 O.co2 110  ASP110     -0.2456
    124  OD2       23.6400   74.4830   36.6150 O.co2 110  ASP110     -0.2456
    125  N         18.5130   69.6720   39.7880 N.3   112  ASN112     -0.1240
    126  CA        17.1040   69.4470   39.5290 C.3   112  ASN112      0.1653
    127  C         16.4000   68.6050   40.5910 C.2   112  ASN112      0.2266
    128  O         15.3800   67.9720   40.3230 O.2   112  ASN112     -0.2867
    129  CB        16.8960   68.8670   38.1240 C.3   112  ASN112      0.1155
    130  CG        17.7280   67.6410   37.8670 C.2   112  ASN112      0.2627
    131  OD1       18.6530   67.3360   38.6150 O.2   112  ASN112     -0.2716
    132  ND2       17.4140   66.9320   36.7940 N.am  112  ASN112     -0.0877
    133  N         15.7420   65.9120   41.7500 N.3   114  ILE114     -0.1231
    134  CA        15.3580   64.5160   41.6830 C.3   114  ILE114      0.1692
    135  C         15.5790   63.8370   40.3230 C.2   114  ILE114      0.2592
    136  O         15.6860   64.4970   39.2830 O.2   114  ILE114     -0.2718
    137  CB        13.8510   64.4150   42.0710 C.3   114  ILE114      0.0266
    138  CG1       13.4220   62.9640   42.2660 C.3   114  ILE114      0.0019
    139  CG2       12.9920   65.0690   40.9820 C.3   114  ILE114      0.0020
    140  CD1       12.0370   62.8340   42.8480 C.3   114  ILE114      0.0001
    141  N         15.6520   62.5050   40.3610 N.am  115  HIS115     -0.1962
    142  CA        15.7940   61.6690   39.1700 C.3   115  HIS115      0.1787
    143  C         14.8550   60.4690   39.2860 C.2   115  HIS115      0.2620
    144  O         14.6830   59.8960   40.3660 O.2   115  HIS115     -0.2715
    145  CB        17.2160   61.1260   39.0060 C.3   115  HIS115      0.0785
    146  CG        17.2890   59.9260   38.1090 C.ar  115  HIS115      0.0821
    147  ND1       17.2120   60.0190   36.7350 N.ar  115  HIS115     -0.2267
    148  CD2       17.2960   58.6000   38.3950 C.ar  115  HIS115      0.1154
    149  CE1       17.1610   58.8060   36.2140 C.ar  115  HIS115      0.1986
    150  NE2       17.2090   57.9260   37.2000 N.ar  115  HIS115     -0.2212
    151  N         14.2620   60.0890   38.1610 N.am  116  GLY116     -0.1954
    152  CA        13.3730   58.9460   38.1260 C.3   116  GLY116      0.1869
    153  C         13.6800   58.1760   36.8580 C.2   116  GLY116      0.2309
    154  O         13.9110   58.7860   35.8140 O.2   116  GLY116     -0.2863
    155  N         18.9590   50.5210   36.9380 N.3   126  GLU126     -0.1245
    156  CA        19.1920   51.4440   38.0450 C.3   126  GLU126      0.1567
    157  C         18.9130   50.8170   39.4100 C.2   126  GLU126      0.2260
    158  O         19.6540   51.0430   40.3720 O.2   126  GLU126     -0.2867
    159  CB        18.3410   52.7040   37.8560 C.3   126  GLU126      0.0388
    160  CG        18.6980   53.4690   36.5940 C.3   126  GLU126      0.1160
    161  CD        17.8630   54.7120   36.3840 C.2   126  GLU126      0.3649
    162  OE1       18.1410   55.4560   35.4220 O.co2 126  GLU126     -0.2457
    163  OE2       16.9270   54.9500   37.1690 O.co2 126  GLU126     -0.2457
@<TRIPOS>BOND
     1    35    34    2
     2    40    38   ar
     3    37    38    1
     4    37    36    1
     5    38    39   ar
     6    34    33    1
     7    34    41   am
     8    60    58   ar
     9    60    61   ar
    10    47    49   ar
    11    47    46   ar
    12    33    36    1
    13    33    32    1
    14    49    50   ar
    15    42    41    1
    16    42    43    1
    17    42    45    1
    18    58    56   ar
    19    97    96   ar
    20    97    95   ar
    21    96    94   ar
    22    61    59   ar
    23    43    44    2
    24    45    46    1
    25    46    48   ar
    26    95    93   ar
    27    94    93   ar
    28    51    52    1
    29    50    48   ar
    30    93    92    1
    31    56    55    1
    32    56    57   ar
    33    59    57   ar
    34    55    52    1
    35    92    89    1
    36    80    78    1
    37    52    53    1
    38    86    85    1
    39    85    87    1
    40    85    82    1
    41    23    22    2
    42    88    89    1
    43    88    83   am
    44    76    77    1
    45    76    75    1
    46    81    82    1
    47    53    54    2
    48    78    77    2
    49    78    79    1
    50    89    90    1
    51    91    90    2
    52    22    21    1
    53    82    83    1
    54   114   116    1
    55   114   113    1
    56    75    74    1
    57    74    71    1
    58   115   113    1
    59    83    84    2
    60   113   110    1
    61    68    67    1
    62    21    24    1
    63    21    20    1
    64    13    12    2
    65    72    73    2
    66    72    71    1
    67    24    25    1
    68    71    70    1
    69    26    25   ar
    70    26    28   ar
    71   162   161   ar
    72    67    66    1
    73    67    69    1
    74    20    12   am
    75    12    11    1
    76   110   109    1
    77   110   111    1
    78    66    63    1
    79   154   153    2
    80    25    27   ar
    81    28    30   ar
    82   123   122   ar
    83   107   106    1
    84   149   147   ar
    85   149   150   ar
    86   111   112    2
    87   111   117   am
    88   161   160    1
    89   161   163   ar
    90   160   159    1
    91   124   122   ar
    92   147   146   ar
    93    11    10    1
    94    11    14    1
    95   117   118    1
    96   122   121    1
    97   132   130   am
    98   106   108    1
    99   106   105    2
   100   153   152    1
   101    62    63    1
   102   155   156    1
   103    63    64    1
   104    27    29   ar
   105   150   148   ar
   106    30    29   ar
   107    30    31    1
   108    18    16   ar
   109    18    19   ar
   110   105   104    1
   111   104   103    1
   112    16    15   ar
   113   118   121    1
   114   118   119    1
   115    19    17   ar
   116    15    17   ar
   117    15    14    1
   118   159   156    1
   119   130   129    1
   120   130   131    2
   121   156   157    1
   122   146   148   ar
   123   146   145    1
   124   129   126    1
   125   152   151    1
   126   151   143   am
   127    64    65    2
   128   102   103    1
   129   102    99    1
   130     9     8    1
   131   119   120    2
   132   145   142    1
   133   142   143    1
   134   142   141    1
   135   136   135    2
   136   143   144    2
   137   157   158    2
   138   100    99    1
   139   100   101    2
   140   126   125    1
   141   126   127    1
   142    99    98    1
   143     8     7    1
   144   135   141   am
   145   135   134    1
   146   128   127    2
   147     7     6    1
   148   139   137    1
   149   134   133    1
   150   134   137    1
   151   137   138    1
   152     6     5    1
   153   138   140    1
   154     5     2    1
   155     2     1    1
   156     2     3    1
   157     3     4    2
