@<TRIPOS>MOLECULE
tmp/1wklB00.pdb
 147 140 0 0 0
SMALL
GASTEIGER

@<TRIPOS>ATOM
      1  N          6.3620   52.1730   63.3160 N.3     9  LYS9       -0.1245
      2  CA         5.8360   50.8120   63.3870 C.3     9  LYS9        0.1561
      3  C          5.0500   50.3670   62.1510 C.2     9  LYS9        0.2260
      4  O          4.7150   51.1810   61.2970 O.2     9  LYS9       -0.2867
      5  CB         5.0030   50.6750   64.6700 C.3     9  LYS9        0.0271
      6  CG         5.8270   51.0090   65.9150 C.3     9  LYS9        0.0035
      7  CD         5.0140   50.9230   67.2040 C.3     9  LYS9        0.0206
      8  CE         5.9030   51.1930   68.4120 C.3     9  LYS9        0.1093
      9  NZ         5.1890   51.0140   69.7040 N.3     9  LYS9       -0.1314
     10  N         15.0440   42.8160   71.2050 N.3    48  HIS48      -0.1226
     11  CA        14.7280   44.2160   71.4650 C.3    48  HIS48       0.1752
     12  C         13.9330   44.3450   72.7610 C.2    48  HIS48       0.2596
     13  O         14.0970   45.3100   73.5070 O.2    48  HIS48      -0.2718
     14  CB        13.9320   44.7990   70.2930 C.3    48  HIS48       0.0759
     15  CG        13.5230   46.2260   70.4880 C.ar   48  HIS48       0.0818
     16  ND1       14.3620   47.1740   71.0340 N.ar   48  HIS48      -0.2268
     17  CD2       12.3740   46.8740   70.1810 C.ar   48  HIS48       0.1154
     18  CE1       13.7480   48.3430   71.0550 C.ar   48  HIS48       0.1986
     19  NE2       12.5400   48.1890   70.5420 N.ar   48  HIS48      -0.2212
     20  N         13.0730   43.3650   73.0190 N.am   49  TYR49      -0.1976
     21  CA        12.2620   43.3460   74.2320 C.3    49  TYR49       0.1639
     22  C         12.8640   42.3240   75.1960 C.2    49  TYR49       0.2290
     23  O         12.4520   41.1650   75.2170 O.2    49  TYR49      -0.2864
     24  CB        10.8210   42.9520   73.9030 C.3    49  TYR49       0.0560
     25  CG        10.1360   43.8620   72.9080 C.ar   49  TYR49      -0.0198
     26  CD1        9.9600   45.2190   73.1790 C.ar   49  TYR49      -0.0009
     27  CD2        9.6560   43.3670   71.6960 C.ar   49  TYR49      -0.0009
     28  CE1        9.3200   46.0610   72.2690 C.ar   49  TYR49       0.0417
     29  CE2        9.0150   44.1990   70.7790 C.ar   49  TYR49       0.0417
     30  CZ         8.8510   45.5440   71.0720 C.ar   49  TYR49       0.1957
     31  OH         8.2190   46.3720   70.1720 O.3    49  TYR49      -0.2866
     32  N         10.7300   43.3660   78.9330 N.3    52  HIS52      -0.1241
     33  CA         9.3010   43.1410   78.7430 C.3    52  HIS52       0.1621
     34  C          9.0460   41.6550   78.4890 C.2    52  HIS52       0.2264
     35  O          7.9180   41.2550   78.2010 O.2    52  HIS52      -0.2867
     36  CB         8.7930   43.9380   77.5340 C.3    52  HIS52       0.0745
     37  CG         8.6880   45.4140   77.7670 C.ar   52  HIS52       0.0817
     38  ND1        9.6840   46.1490   78.3750 N.ar   52  HIS52      -0.2268
     39  CD2        7.7190   46.3000   77.4340 C.ar   52  HIS52       0.1154
     40  CE1        9.3320   47.4230   78.4060 C.ar   52  HIS52       0.1986
     41  NE2        8.1440   47.5410   77.8400 N.ar   52  HIS52      -0.2212
     42  N          1.5600   40.8220   77.3980 N.3    57  PHE57      -0.1241
     43  CA         1.3490   41.1850   75.9920 C.3    57  PHE57       0.1605
     44  C          2.5620   40.9820   75.0900 C.2    57  PHE57       0.2264
     45  O          2.4880   41.2110   73.8830 O.2    57  PHE57      -0.2867
     46  CB         0.8840   42.6450   75.8990 C.3    57  PHE57       0.0534
     47  CG         1.9010   43.6380   76.3910 C.ar   57  PHE57      -0.0203
     48  CD1        2.9900   43.9910   75.5980 C.ar   57  PHE57      -0.0042
     49  CD2        1.7870   44.1980   77.6600 C.ar   57  PHE57      -0.0042
     50  CE1        3.9530   44.8830   76.0620 C.ar   57  PHE57      -0.0003
     51  CE2        2.7450   45.0910   78.1340 C.ar   57  PHE57      -0.0003
     52  CZ         3.8300   45.4340   77.3330 C.ar   57  PHE57      -0.0000
     53  N          1.8260   39.2810   71.8570 N.3    60  GLY60      -0.1210
     54  CA         0.9440   40.0890   71.0340 C.3    60  GLY60       0.1956
     55  C          1.6600   41.2970   70.4610 C.2    60  GLY60       0.2611
     56  O          1.2600   41.8380   69.4280 O.2    60  GLY60      -0.2717
     57  N          2.7240   41.7190   71.1380 N.am   61  LEU61      -0.1979
     58  CA         3.5140   42.8640   70.7050 C.3    61  LEU61       0.1596
     59  C          4.4060   42.4190   69.5490 C.2    61  LEU61       0.2287
     60  O          4.3780   43.0090   68.4670 O.2    61  LEU61      -0.2864
     61  CB         4.3810   43.3740   71.8630 C.3    61  LEU61       0.0297
     62  CG         4.7110   44.8700   71.9060 C.3    61  LEU61       0.0022
     63  CD1        5.6650   45.1340   73.0610 C.3    61  LEU61       0.0001
     64  CD2        5.3270   45.3220   70.5910 C.3    61  LEU61       0.0001
     65  N          2.7210   42.0870   66.3590 N.3    64  PHE64      -0.1241
     66  CA         2.4750   43.3520   65.6810 C.3    64  PHE64       0.1605
     67  C          3.7330   44.0040   65.1110 C.2    64  PHE64       0.2264
     68  O          3.7290   44.4890   63.9780 O.2    64  PHE64      -0.2867
     69  CB         1.7870   44.3360   66.6350 C.3    64  PHE64       0.0534
     70  CG         1.7020   45.7380   66.0980 C.ar   64  PHE64      -0.0203
     71  CD1        1.0150   46.0040   64.9160 C.ar   64  PHE64      -0.0042
     72  CD2        2.3300   46.7890   66.7610 C.ar   64  PHE64      -0.0042
     73  CE1        0.9560   47.2950   64.4000 C.ar   64  PHE64      -0.0003
     74  CE2        2.2780   48.0880   66.2530 C.ar   64  PHE64      -0.0003
     75  CZ         1.5900   48.3410   65.0700 C.ar   64  PHE64      -0.0000
     76  N         10.9130   62.3410   72.4620 N.3    85  ARG85      -0.1245
     77  CA         9.9070   61.7300   73.3290 C.3    85  ARG85       0.1563
     78  C          8.7570   62.7340   73.4540 C.2    85  ARG85       0.2260
     79  O          7.5840   62.3580   73.4510 O.2    85  ARG85      -0.2867
     80  CB        10.4810   61.4370   74.7200 C.3    85  ARG85       0.0307
     81  CG        11.6100   60.3970   74.7240 C.3    85  ARG85       0.0489
     82  CD        11.0900   58.9780   74.5140 C.3    85  ARG85       0.2205
     83  NE        10.3870   58.4830   75.6970 N.pl3  85  ARG85      -0.0865
     84  CZ         9.9510   57.2340   75.8500 C.cat  85  ARG85       0.5346
     85  NH1        9.3220   56.8880   76.9690 N.pl3  85  ARG85       0.1354
     86  NH2       10.1390   56.3310   74.8900 N.pl3  85  ARG85       0.1354
     87  N          2.7360   57.4420   75.4580 N.3    91  THR91      -0.1218
     88  CA         2.7100   56.1130   74.8560 C.3    91  THR91       0.1862
     89  C          1.2850   55.7220   74.4720 C.2    91  THR91       0.2287
     90  O          1.0530   55.1650   73.3930 O.2    91  THR91      -0.2866
     91  CB         3.2460   55.0570   75.8310 C.3    91  THR91       0.1770
     92  OG1        4.6010   55.3690   76.1760 O.3    91  THR91      -0.2211
     93  CG2        3.1870   53.6900   75.1950 C.3    91  THR91       0.0375
     94  N          1.6380   60.8410   68.2360 N.3   102  ARG102     -0.1245
     95  CA         0.6110   59.9020   68.6640 C.3   102  ARG102      0.1563
     96  C         -0.7060   60.6250   68.9490 C.2   102  ARG102      0.2260
     97  O         -1.7820   60.0550   68.7640 O.2   102  ARG102     -0.2867
     98  CB         1.1080   59.0940   69.8740 C.3   102  ARG102      0.0307
     99  CG         2.3100   58.2160   69.4750 C.3   102  ARG102      0.0489
    100  CD         2.7310   57.1640   70.4960 C.3   102  ARG102      0.2205
    101  NE         3.6200   57.6960   71.5190 N.pl3 102  ARG102     -0.0865
    102  CZ         4.7700   57.1370   71.8880 C.cat 102  ARG102      0.5346
    103  NH1        5.4980   57.7050   72.8370 N.pl3 102  ARG102      0.1354
    104  NH2        5.2030   56.0230   71.3110 N.pl3 102  ARG102      0.1354
    105  N         -3.0860   52.0890   72.0940 N.3   109  ILE109     -0.1231
    106  CA        -1.7210   51.8450   72.5200 C.3   109  ILE109      0.1692
    107  C         -1.1630   50.6450   71.7500 C.2   109  ILE109      0.2592
    108  O          0.0370   50.5680   71.4980 O.2   109  ILE109     -0.2718
    109  CB        -1.6410   51.6030   74.0490 C.3   109  ILE109      0.0266
    110  CG1       -0.1720   51.5130   74.4750 C.3   109  ILE109      0.0019
    111  CG2       -2.4170   50.3350   74.4260 C.3   109  ILE109      0.0020
    112  CD1        0.0550   51.7360   75.9570 C.3   109  ILE109      0.0001
    113  N         -2.0460   49.7290   71.3580 N.am  110  ASP110     -0.1974
    114  CA        -1.6610   48.5350   70.5950 C.3   110  ASP110      0.1709
    115  C         -0.9180   48.9470   69.3310 C.2   110  ASP110      0.2293
    116  O          0.1390   48.4130   69.0080 O.2   110  ASP110     -0.2864
    117  CB        -2.9090   47.7490   70.1920 C.3   110  ASP110      0.1436
    118  CG        -3.7250   47.3050   71.3830 C.2   110  ASP110      0.3671
    119  OD1       -3.5030   46.1690   71.8560 O.co2 110  ASP110     -0.2456
    120  OD2       -4.5770   48.0990   71.8530 O.co2 110  ASP110     -0.2456
    121  N          0.3200   52.2770   68.3020 N.3   112  ASN112     -0.1240
    122  CA         0.5710   53.6840   68.5640 C.3   112  ASN112      0.1653
    123  C          1.5630   54.3250   67.6030 C.2   112  ASN112      0.2266
    124  O          2.3070   55.2320   67.9760 O.2   112  ASN112     -0.2867
    125  CB         0.9940   53.9020   70.0260 C.3   112  ASN112      0.1155
    126  CG         2.2790   53.1860   70.3800 C.2   112  ASN112      0.2627
    127  OD1        2.8230   52.4290   69.5790 O.2   112  ASN112     -0.2716
    128  ND2        2.7720   53.4230   71.5890 N.am  112  ASN112     -0.0877
    129  N          7.8000   54.6150   67.8180 N.3   115  HIS115     -0.1226
    130  CA         8.6180   54.3300   68.9930 C.3   115  HIS115      0.1752
    131  C          9.8450   55.2500   68.9540 C.2   115  HIS115      0.2596
    132  O         10.3820   55.5350   67.8810 O.2   115  HIS115     -0.2718
    133  CB         9.0900   52.8720   68.9920 C.3   115  HIS115      0.0759
    134  CG        10.2990   52.6360   69.8470 C.ar  115  HIS115      0.0818
    135  ND1       10.2400   52.5670   71.2230 N.ar  115  HIS115     -0.2268
    136  CD2       11.6120   52.5400   69.5240 C.ar  115  HIS115      0.1154
    137  CE1       11.4620   52.4420   71.7100 C.ar  115  HIS115      0.1986
    138  NE2       12.3140   52.4250   70.7000 N.ar  115  HIS115     -0.2212
    139  N         10.2690   55.7120   70.1280 N.am  116  GLY116     -0.1957
    140  CA        11.4420   56.5620   70.2290 C.3   116  GLY116      0.1869
    141  C         12.2330   56.1760   71.4710 C.2   116  GLY116      0.2309
    142  O         11.6260   55.9180   72.5100 O.2   116  GLY116     -0.2863
    143  N         13.9360   55.8090   74.9290 N.3   118  ALA118     -0.1245
    144  CA        13.5960   56.4250   76.2050 C.3   118  ALA118      0.1562
    145  C         14.7610   57.1890   76.8280 C.2   118  ALA118      0.2260
    146  O         14.5510   58.1910   77.5130 O.2   118  ALA118     -0.2867
    147  CB        13.0880   55.3580   77.1710 C.3   118  ALA118      0.0290
@<TRIPOS>BOND
     1     4     3    2
     2     3     2    1
     3     1     2    1
     4     2     5    1
     5    68    67    2
     6    73    71   ar
     7    73    75   ar
     8     5     6    1
     9    71    70   ar
    10    75    74   ar
    11    67    66    1
    12    66    65    1
    13    66    69    1
    14     6     7    1
    15    70    69    1
    16    70    72   ar
    17    74    72   ar
    18     7     8    1
    19   123   124    2
    20   123   122    1
    21   129   130    1
    22   132   131    2
    23    94    95    1
    24   121   122    1
    25     8     9    1
    26    60    59    2
    27   122   125    1
    28    95    96    1
    29    95    98    1
    30    97    96    2
    31   131   130    1
    32   131   139   am
    33   133   130    1
    34   133   134    1
    35   116   115    2
    36   115   114    1
    37    56    55    2
    38    99    98    1
    39    99   100    1
    40   136   134   ar
    41   136   138   ar
    42    59    58    1
    43   127   126    2
    44   134   135   ar
    45   125   126    1
    46   139   140    1
    47    31    30    1
    48    17    15   ar
    49    17    19   ar
    50   117   114    1
    51   117   118    1
    52   140   141    1
    53    14    15    1
    54    14    11    1
    55   126   128   am
    56    55    54    1
    57    55    57   am
    58    15    16   ar
    59   100   101    1
    60    19    18   ar
    61    64    62    1
    62   114   113    1
    63   138   137   ar
    64    58    57    1
    65    58    61    1
    66    29    30   ar
    67    29    27   ar
    68    16    18   ar
    69    54    53    1
    70    30    28   ar
    71    10    11    1
    72   135   137   ar
    73   104   102    1
    74   113   107   am
    75   118   120   ar
    76   118   119   ar
    77    11    12    1
    78   141   142    2
    79   108   107    2
    80   101   102    2
    81    27    25   ar
    82   107   106    1
    83    61    62    1
    84   102   103    1
    85    62    63    1
    86   105   106    1
    87    28    26   ar
    88    76    77    1
    89   106   109    1
    90    12    20   am
    91    12    13    2
    92    25    26   ar
    93    25    24    1
    94    20    21    1
    95    77    78    1
    96    77    80    1
    97    90    89    2
    98    79    78    2
    99    45    44    2
   100    24    21    1
   101   109   111    1
   102   109   110    1
   103    21    22    1
   104    89    88    1
   105   110   112    1
   106    82    81    1
   107    82    83    1
   108    80    81    1
   109    88    87    1
   110    88    91    1
   111    86    84    1
   112   143   144    1
   113    44    43    1
   114    93    91    1
   115    22    23    2
   116    48    50   ar
   117    48    47   ar
   118    83    84    2
   119    91    92    1
   120    84    85    1
   121    46    43    1
   122    46    47    1
   123    43    42    1
   124    50    52   ar
   125   144   145    1
   126   144   147    1
   127    47    49   ar
   128   145   146    2
   129    52    51   ar
   130    39    37   ar
   131    39    41   ar
   132    36    37    1
   133    36    33    1
   134    49    51   ar
   135    37    38   ar
   136    41    40   ar
   137    35    34    2
   138    38    40   ar
   139    34    33    1
   140    33    32    1
