@<TRIPOS>MOLECULE
tmp/1wklA00.pdb
 160 153 0 0 0
SMALL
GASTEIGER

@<TRIPOS>ATOM
      1  N         18.0720   63.3390   45.9160 N.3     9  LYS9       -0.1245
      2  CA        19.4690   63.7520   45.8250 C.3     9  LYS9        0.1561
      3  C         19.9930   64.5200   47.0430 C.2     9  LYS9        0.2260
      4  O         19.2240   64.9000   47.9240 O.2     9  LYS9       -0.2867
      5  CB        19.6550   64.5430   44.5250 C.3     9  LYS9        0.0271
      6  CG        19.1180   63.7890   43.3120 C.3     9  LYS9        0.0035
      7  CD        19.4620   64.4700   41.9850 C.3     9  LYS9        0.0206
      8  CE        18.9760   63.6320   40.7950 C.3     9  LYS9        0.1093
      9  NZ        19.3570   64.2110   39.4630 N.3     9  LYS9       -0.1314
     10  N         25.8150   57.0170   36.1530 N.3    49  TYR49      -0.1241
     11  CA        25.8690   58.0160   35.0940 C.3    49  TYR49       0.1605
     12  C         26.8300   57.6580   33.9690 C.2    49  TYR49       0.2264
     13  O         27.3440   58.5440   33.2860 O.2    49  TYR49      -0.2867
     14  CB        26.2720   59.3680   35.6670 C.3    49  TYR49       0.0534
     15  CG        25.2440   59.9890   36.5750 C.ar   49  TYR49      -0.0201
     16  CD1       23.9490   60.2400   36.1240 C.ar   49  TYR49      -0.0009
     17  CD2       25.5840   60.3900   37.8660 C.ar   49  TYR49      -0.0009
     18  CE1       23.0240   60.8820   36.9310 C.ar   49  TYR49       0.0417
     19  CE2       24.6660   61.0340   38.6830 C.ar   49  TYR49       0.0417
     20  CZ        23.3890   61.2830   38.2060 C.ar   49  TYR49       0.1957
     21  OH        22.4950   61.9760   38.9840 O.3    49  TYR49      -0.2866
     22  N         26.1970   56.5630   31.2290 N.3    51  GLU51      -0.1231
     23  CA        25.5660   57.1120   30.0330 C.3    51  GLU51       0.1699
     24  C         26.1680   58.4540   29.6290 C.2    51  GLU51       0.2592
     25  O         26.3870   58.7130   28.4470 O.2    51  GLU51      -0.2718
     26  CB        24.0610   57.2750   30.2810 C.3    51  GLU51       0.0402
     27  CG        23.3050   58.0440   29.2030 C.3    51  GLU51       0.1161
     28  CD        21.8380   58.2490   29.5550 C.2    51  GLU51       0.3649
     29  OE1       21.1310   58.9420   28.7920 O.co2  51  GLU51      -0.2457
     30  OE2       21.3900   57.7170   30.5940 O.co2  51  GLU51      -0.2457
     31  N         26.4400   59.3010   30.6170 N.am   52  HIS52      -0.1976
     32  CA        26.9980   60.6230   30.3590 C.3    52  HIS52       0.1656
     33  C         28.4860   60.7130   30.6890 C.2    52  HIS52       0.2291
     34  O         28.9920   61.8020   30.9610 O.2    52  HIS52      -0.2864
     35  CB        26.2490   61.6780   31.1840 C.3    52  HIS52       0.0771
     36  CG        24.7580   61.5650   31.1100 C.ar   52  HIS52       0.0820
     37  ND1       24.0560   61.6870   29.9300 N.ar   52  HIS52      -0.2267
     38  CD2       23.8340   61.3480   32.0760 C.ar   52  HIS52       0.1154
     39  CE1       22.7640   61.5490   30.1720 C.ar   52  HIS52       0.1986
     40  NE2       22.6020   61.3430   31.4670 N.ar   52  HIS52      -0.2212
     41  N         29.7620   67.8000   31.6390 N.3    57  PHE57      -0.1241
     42  CA        29.2440   68.0630   32.9810 C.3    57  PHE57       0.1605
     43  C         29.3720   66.8440   33.8900 C.2    57  PHE57       0.2264
     44  O         29.0270   66.8990   35.0710 O.2    57  PHE57      -0.2867
     45  CB        27.7750   68.5160   32.9180 C.3    57  PHE57       0.0534
     46  CG        26.8640   67.5720   32.1670 C.ar   57  PHE57      -0.0203
     47  CD1       26.7640   66.2300   32.5280 C.ar   57  PHE57      -0.0042
     48  CD2       26.0870   68.0370   31.1100 C.ar   57  PHE57      -0.0042
     49  CE1       25.9030   65.3680   31.8470 C.ar   57  PHE57      -0.0003
     50  CE2       25.2230   67.1830   30.4240 C.ar   57  PHE57      -0.0003
     51  CZ        25.1320   65.8460   30.7930 C.ar   57  PHE57      -0.0000
     52  N         28.8370   66.5080   37.8570 N.3    61  LEU61      -0.1245
     53  CA        27.6430   65.7350   38.1590 C.3    61  LEU61       0.1561
     54  C         27.9730   64.7250   39.2540 C.2    61  LEU61       0.2260
     55  O         27.2660   64.6280   40.2580 O.2    61  LEU61      -0.2867
     56  CB        27.1720   64.9940   36.9080 C.3    61  LEU61       0.0270
     57  CG        25.6940   64.6040   36.8350 C.3    61  LEU61       0.0019
     58  CD1       25.4960   63.5980   35.7110 C.3    61  LEU61       0.0001
     59  CD2       25.2390   64.0200   38.1550 C.3    61  LEU61       0.0001
     60  N         28.4770   66.2770   42.5790 N.3    64  PHE64      -0.1241
     61  CA        27.2300   66.6580   43.2270 C.3    64  PHE64       0.1605
     62  C         26.5180   65.4640   43.8590 C.2    64  PHE64       0.2264
     63  O         26.1830   65.4880   45.0430 O.2    64  PHE64      -0.2867
     64  CB        26.2820   67.3280   42.2260 C.3    64  PHE64       0.0534
     65  CG        24.8720   67.4660   42.7380 C.ar   64  PHE64      -0.0203
     66  CD1       24.5990   68.2350   43.8670 C.ar   64  PHE64      -0.0042
     67  CD2       23.8240   66.7900   42.1190 C.ar   64  PHE64      -0.0042
     68  CE1       23.3030   68.3270   44.3780 C.ar   64  PHE64      -0.0003
     69  CE2       22.5230   66.8740   42.6210 C.ar   64  PHE64      -0.0003
     70  CZ        22.2620   67.6450   43.7550 C.ar   64  PHE64      -0.0000
     71  N          7.4250   59.1280   37.0670 N.3    85  ARG85      -0.1245
     72  CA         8.1290   59.9920   36.1290 C.3    85  ARG85       0.1563
     73  C          7.3340   61.2770   35.8980 C.2    85  ARG85       0.2260
     74  O          7.9000   62.3670   35.8370 O.2    85  ARG85      -0.2867
     75  CB         8.3560   59.2520   34.8100 C.3    85  ARG85       0.0307
     76  CG         9.7570   58.6870   34.6840 C.3    85  ARG85       0.0489
     77  CD        10.7000   59.7550   34.1580 C.3    85  ARG85       0.2205
     78  NE        12.0910   59.5190   34.5330 N.pl3  85  ARG85      -0.0865
     79  CZ        13.1330   60.0400   33.8910 C.cat  85  ARG85       0.5346
     80  NH1       14.3680   59.7800   34.3060 N.pl3  85  ARG85       0.1354
     81  NH2       12.9420   60.8000   32.8200 N.pl3  85  ARG85       0.1354
     82  N         13.1270   67.3120   33.6830 N.3    91  THR91      -0.1203
     83  CA        14.4850   67.2500   34.2050 C.3    91  THR91       0.1994
     84  C         15.0210   68.6460   34.5030 C.2    91  THR91       0.2617
     85  O         15.6280   68.8740   35.5480 O.2    91  THR91      -0.2717
     86  CB        15.4180   66.5450   33.1970 C.3    91  THR91       0.1784
     87  OG1       14.9650   65.1990   32.9930 O.3    91  THR91      -0.2211
     88  CG2       16.8440   66.5190   33.7110 C.3    91  THR91       0.0376
     89  N         14.8110   69.5710   33.5750 N.am   92  HIS92      -0.1975
     90  CA        15.2440   70.9490   33.7650 C.3    92  HIS92       0.1656
     91  C         14.1240   71.6540   34.5210 C.2    92  HIS92       0.2291
     92  O         13.0640   71.9230   33.9580 O.2    92  HIS92      -0.2864
     93  CB        15.4640   71.6450   32.4180 C.3    92  HIS92       0.0771
     94  CG        16.7290   71.2430   31.7220 C.ar   92  HIS92       0.0820
     95  ND1       16.9630   69.9590   31.2780 N.ar   92  HIS92      -0.2267
     96  CD2       17.8270   71.9630   31.3870 C.ar   92  HIS92       0.1154
     97  CE1       18.1500   69.9050   30.6990 C.ar   92  HIS92       0.1986
     98  NE2       18.6950   71.1080   30.7520 N.ar   92  HIS92      -0.2212
     99  N          9.8020   68.6160   40.9660 N.3   102  ARG102     -0.1245
    100  CA        10.8450   69.5630   40.5850 C.3   102  ARG102      0.1563
    101  C         10.2230   70.9320   40.3730 C.2   102  ARG102      0.2260
    102  O         10.8520   71.9570   40.6290 O.2   102  ARG102     -0.2867
    103  CB        11.5450   69.1060   39.3060 C.3   102  ARG102      0.0307
    104  CG        12.3420   67.8470   39.5050 C.3   102  ARG102      0.0489
    105  CD        12.9350   67.3430   38.2160 C.3   102  ARG102      0.2205
    106  NE        13.7320   66.1480   38.4570 N.pl3 102  ARG102     -0.0865
    107  CZ        13.8120   65.1240   37.6190 C.cat 102  ARG102      0.5346
    108  NH1       13.1370   65.1430   36.4780 N.pl3 102  ARG102      0.1354
    109  NH2       14.5690   64.0790   37.9250 N.pl3 102  ARG102      0.1354
    110  N         19.0010   72.9220   36.9890 N.3   109  ILE109     -0.1231
    111  CA        19.2190   71.5730   36.4610 C.3   109  ILE109      0.1692
    112  C         20.3040   70.8250   37.2380 C.2   109  ILE109      0.2592
    113  O         20.2230   69.6130   37.4300 O.2   109  ILE109     -0.2718
    114  CB        19.6230   71.6190   34.9570 C.3   109  ILE109      0.0266
    115  CG1       19.9620   70.2120   34.4560 C.3   109  ILE109      0.0019
    116  CG2       20.8170   72.5510   34.7610 C.3   109  ILE109      0.0020
    117  CD1       18.7790   69.2770   34.3980 C.3   109  ILE109      0.0001
    118  N         21.3160   71.5540   37.6890 N.am  110  ASP110     -0.1974
    119  CA        22.4160   70.9520   38.4310 C.3   110  ASP110      0.1709
    120  C         21.9420   70.2590   39.7040 C.2   110  ASP110      0.2293
    121  O         22.2970   69.1110   39.9630 O.2   110  ASP110     -0.2864
    122  CB        23.4530   72.0270   38.7630 C.3   110  ASP110      0.1436
    123  CG        23.9870   72.7160   37.5200 C.2   110  ASP110      0.3671
    124  OD1       24.6220   72.0310   36.6890 O.co2 110  ASP110     -0.2456
    125  OD2       23.7630   73.9360   37.3660 O.co2 110  ASP110     -0.2456
    126  N         18.6500   69.2160   40.9460 N.3   112  ASN112     -0.1240
    127  CA        17.2260   69.0540   40.7120 C.3   112  ASN112      0.1653
    128  C         16.4560   68.1320   41.6540 C.2   112  ASN112      0.2266
    129  O         15.4830   67.4900   41.2580 O.2   112  ASN112     -0.2867
    130  CB        16.9700   68.6850   39.2460 C.3   112  ASN112      0.1155
    131  CG        17.4540   67.3010   38.8900 C.2   112  ASN112      0.2627
    132  OD1       18.2290   66.6830   39.6190 O.2   112  ASN112     -0.2716
    133  ND2       16.9990   66.8070   37.7470 N.am  112  ASN112     -0.0877
    134  N         15.5380   65.3360   42.7580 N.3   114  ILE114     -0.1231
    135  CA        15.1550   63.9360   42.7060 C.3   114  ILE114      0.1692
    136  C         15.4080   63.2220   41.3900 C.2   114  ILE114      0.2592
    137  O         15.5380   63.8500   40.3390 O.2   114  ILE114     -0.2718
    138  CB        13.6460   63.8320   43.0370 C.3   114  ILE114      0.0266
    139  CG1       13.1830   62.3890   43.1350 C.3   114  ILE114      0.0019
    140  CG2       12.8500   64.5520   41.9610 C.3   114  ILE114      0.0020
    141  CD1       11.7760   62.2620   43.7190 C.3   114  ILE114      0.0001
    142  N         15.4600   61.8940   41.4740 N.am  115  HIS115     -0.1962
    143  CA        15.6440   61.0280   40.3180 C.3   115  HIS115      0.1787
    144  C         14.5830   59.9420   40.3190 C.2   115  HIS115      0.2620
    145  O         14.2460   59.4030   41.3710 O.2   115  HIS115     -0.2715
    146  CB        16.9730   60.2990   40.3690 C.3   115  HIS115      0.0785
    147  CG        16.9770   59.0420   39.5490 C.ar  115  HIS115      0.0821
    148  ND1       16.9330   59.0610   38.1710 N.ar  115  HIS115     -0.2267
    149  CD2       16.9670   57.7340   39.9070 C.ar  115  HIS115      0.1154
    150  CE1       16.9000   57.8210   37.7160 C.ar  115  HIS115      0.1986
    151  NE2       16.9190   56.9960   38.7470 N.ar  115  HIS115     -0.2212
    152  N         14.1040   59.5850   39.1340 N.am  116  GLY116     -0.1954
    153  CA        13.1210   58.5250   39.0150 C.3   116  GLY116      0.1869
    154  C         13.4550   57.7050   37.7840 C.2   116  GLY116      0.2309
    155  O         13.7040   58.2700   36.7220 O.2   116  GLY116     -0.2863
    156  N         13.6920   56.0320   34.3940 N.3   118  ALA118     -0.1245
    157  CA        13.0670   56.4490   33.1410 C.3   118  ALA118      0.1562
    158  C         12.1910   55.3750   32.4940 C.2   118  ALA118      0.2260
    159  O         11.1790   55.6900   31.8690 O.2   118  ALA118     -0.2867
    160  CB        14.1430   56.9070   32.1520 C.3   118  ALA118      0.0290
@<TRIPOS>BOND
     1    25    24    2
     2    29    28   ar
     3    27    28    1
     4    27    26    1
     5    28    30   ar
     6    24    23    1
     7    24    31   am
     8    37    39   ar
     9    37    36   ar
    10    23    26    1
    11    23    22    1
    12    39    40   ar
    13    32    31    1
    14    32    33    1
    15    32    35    1
    16    50    51   ar
    17    50    48   ar
    18    33    34    2
    19    97    98   ar
    20    97    95   ar
    21    98    96   ar
    22    51    49   ar
    23    36    35    1
    24    36    38   ar
    25    48    46   ar
    26    95    94   ar
    27    96    94   ar
    28    40    38   ar
    29    41    42    1
    30    94    93    1
    31    49    47   ar
    32   159   158    2
    33   160   157    1
    34    46    47   ar
    35    46    45    1
    36    93    90    1
    37   158   157    1
    38    81    79    1
    39    45    42    1
    40    42    43    1
    41    87    86    1
    42   157   156    1
    43    86    88    1
    44    86    83    1
    45    13    12    2
    46    89    90    1
    47    89    84   am
    48    82    83    1
    49    90    91    1
    50    43    44    2
    51    79    80    1
    52    79    78    2
    53    92    91    2
    54    12    11    1
    55    77    78    1
    56    77    76    1
    57    83    84    1
    58   117   115    1
    59   115   114    1
    60    84    85    2
    61    76    75    1
    62   116   114    1
    63    75    72    1
    64   114   111    1
    65    11    14    1
    66    11    10    1
    67    14    15    1
    68    58    57    1
    69    74    73    2
    70    73    72    1
    71    16    15   ar
    72    16    18   ar
    73    72    71    1
    74   111   110    1
    75   111   112    1
    76   108   107    1
    77    15    17   ar
    78   124   123   ar
    79   155   154    2
    80    57    56    1
    81    57    59    1
    82    56    53    1
    83    18    20   ar
    84   112   113    2
    85   112   118   am
    86   125   123   ar
    87   123   122    1
    88   107   109    1
    89   107   106    2
    90   118   119    1
    91   150   148   ar
    92   150   151   ar
    93   133   131   am
    94   154   153    1
    95    52    53    1
    96    17    19   ar
    97    53    54    1
    98   148   147   ar
    99    20    19   ar
   100    20    21    1
   101   105   106    1
   102   105   104    1
   103   119   122    1
   104   119   120    1
   105   151   149   ar
   106   131   130    1
   107   131   132    2
   108   153   152    1
   109   152   144   am
   110   130   127    1
   111    54    55    2
   112   103   104    1
   113   103   100    1
   114     9     8    1
   115   147   149   ar
   116   147   146    1
   117   120   121    2
   118   143   144    1
   119   143   146    1
   120   143   142    1
   121   144   145    2
   122   137   136    2
   123   101   100    1
   124   101   102    2
   125   100    99    1
   126   127   126    1
   127   127   128    1
   128     8     7    1
   129   129   128    2
   130   136   142   am
   131   136   135    1
   132   140   138    1
   133     7     6    1
   134    67    69   ar
   135    67    65   ar
   136    64    65    1
   137    64    61    1
   138    60    61    1
   139    69    70   ar
   140   135   134    1
   141   135   138    1
   142    65    66   ar
   143   138   139    1
   144   139   141    1
   145    61    62    1
   146     6     5    1
   147    70    68   ar
   148    62    63    2
   149    66    68   ar
   150     5     2    1
   151     2     1    1
   152     2     3    1
   153     3     4    2
