@<TRIPOS>MOLECULE
tmp/1wkmA00.pdb
 125 120 0 0 0
SMALL
GASTEIGER

@<TRIPOS>ATOM
      1  N         48.7500   65.4790   -6.6140 N.3    50  PHE50      -0.1227
      2  CA        49.5340   64.2760   -6.9250 C.3    50  PHE50       0.1725
      3  C         48.5940   63.2200   -7.5080 C.2    50  PHE50       0.2475
      4  O         47.3650   63.3060   -7.3570 O.2    50  PHE50      -0.2730
      5  CB        50.1970   63.7260   -5.6550 C.3    50  PHE50       0.0547
      6  CG        49.2420   63.6080   -4.4580 C.ar   50  PHE50      -0.0202
      7  CD1       49.1470   64.6530   -3.5310 C.ar   50  PHE50      -0.0042
      8  CD2       48.4660   62.4520   -4.2850 C.ar   50  PHE50      -0.0042
      9  CE1       48.2810   64.5450   -2.4350 C.ar   50  PHE50      -0.0003
     10  CE2       47.6000   62.3450   -3.1890 C.ar   50  PHE50      -0.0003
     11  CZ        47.5080   63.3910   -2.2640 C.ar   50  PHE50      -0.0000
     12  N         49.0840   62.1830   -8.2020 N.am   51  PRO51      -0.2506
     13  CA        48.2000   61.1670   -8.7390 C.3    51  PRO51       0.1487
     14  C         47.4940   60.4900   -7.6030 C.2    51  PRO51       0.2276
     15  O         48.1640   60.1170   -6.5950 O.2    51  PRO51      -0.2865
     16  CB        49.1280   60.2120   -9.4490 C.3    51  PRO51       0.0556
     17  CG        50.5480   60.7230   -9.2660 C.2    51  PRO51      -0.0078
     18  CD        50.5090   61.9890   -8.4640 C.2    51  PRO51       0.0634
     19  N         46.3190   58.0760   -5.1320 N.3    53  ASN53      -0.1240
     20  CA        46.9020   56.8170   -4.6590 C.3    53  ASN53       0.1653
     21  C         45.7860   55.8300   -4.3290 C.2    53  ASN53       0.2266
     22  O         44.7870   56.1860   -3.6880 O.2    53  ASN53      -0.2867
     23  CB        47.7320   57.0590   -3.3960 C.3    53  ASN53       0.1155
     24  CG        49.1010   57.6800   -3.6820 C.2    53  ASN53       0.2627
     25  OD1       50.1090   57.2260   -3.1410 O.2    53  ASN53      -0.2716
     26  ND2       49.2000   58.7060   -4.5050 N.am   53  ASN53      -0.0877
     27  N         51.5060   54.9270   -1.9630 N.3    62  HIS62      -0.1241
     28  CA        52.3270   55.3090   -3.1210 C.3    62  HIS62       0.1621
     29  C         52.1290   54.3620   -4.2990 C.2    62  HIS62       0.2264
     30  O         53.0820   54.0320   -5.0200 O.2    62  HIS62      -0.2867
     31  CB        53.7970   55.3320   -2.7340 C.3    62  HIS62       0.0745
     32  CG        54.1080   56.5020   -1.8120 C.ar   62  HIS62       0.0817
     33  ND1       55.4090   56.8690   -1.4950 N.ar   62  HIS62      -0.2268
     34  CD2       53.2900   57.3650   -1.1560 C.ar   62  HIS62       0.1154
     35  CE1       55.3510   57.9080   -0.6800 C.ar   62  HIS62       0.1986
     36  NE2       54.0940   58.2160   -0.4680 N.ar   62  HIS62      -0.2212
     37  N         43.8150   57.7870   -1.2920 N.3    82  ASP82      -0.1239
     38  CA        44.4980   59.0460   -0.9380 C.3    82  ASP82       0.1674
     39  C         44.4000   60.0380   -2.1020 C.2    82  ASP82       0.2266
     40  O         45.1250   59.9210   -3.1020 O.2    82  ASP82      -0.2867
     41  CB        45.9740   58.7820   -0.6260 C.3    82  ASP82       0.1410
     42  CG        46.5960   59.8610    0.2650 C.2    82  ASP82       0.3668
     43  OD1       47.4890   59.5420    1.1400 O.co2  82  ASP82      -0.2456
     44  OD2       46.2270   61.0920    0.1410 O.co2  82  ASP82      -0.2456
     45  N         45.1430   67.3820    1.0640 N.3    93  ASP93      -0.1239
     46  CA        45.5810   65.9770    1.1210 C.3    93  ASP93       0.1674
     47  C         44.7290   65.2070    2.1380 C.2    93  ASP93       0.2266
     48  O         44.8520   65.4030    3.3540 O.2    93  ASP93      -0.2867
     49  CB        47.0560   65.9590    1.5410 C.3    93  ASP93       0.1410
     50  CG        47.6680   64.5630    1.6360 C.2    93  ASP93       0.3668
     51  OD1       47.0320   63.5460    1.1700 O.co2  93  ASP93      -0.2456
     52  OD2       48.8260   64.4080    2.1870 O.co2  93  ASP93      -0.2456
     53  N         52.4360   65.5860    7.7650 N.3   153  HIS153     -0.1241
     54  CA        53.4320   66.5590    7.3320 C.3   153  HIS153      0.1621
     55  C         52.8100   67.9290    7.1140 C.2   153  HIS153      0.2264
     56  O         51.6340   68.0440    6.7380 O.2   153  HIS153     -0.2867
     57  CB        54.0250   66.1080    6.0000 C.3   153  HIS153      0.0745
     58  CG        52.9540   65.6090    5.0230 C.ar  153  HIS153      0.0817
     59  ND1       52.4230   66.4290    4.0300 N.ar  153  HIS153     -0.2268
     60  CD2       52.3290   64.4070    4.8930 C.ar  153  HIS153      0.1154
     61  CE1       51.5280   65.7300    3.3530 C.ar  153  HIS153      0.1986
     62  NE2       51.4610   64.5230    3.8550 N.ar  153  HIS153     -0.2212
     63  N         54.0530   69.8020   -0.9710 N.3   160  LEU160     -0.1231
     64  CA        53.3260   68.7540   -0.2320 C.3   160  LEU160      0.1693
     65  C         53.9780   68.5020    1.1340 C.2   160  LEU160      0.2592
     66  O         53.3250   68.5990    2.1820 O.2   160  LEU160     -0.2718
     67  CB        53.3260   67.4460   -1.0240 C.3   160  LEU160      0.0284
     68  CG        52.4340   66.3720   -0.3950 C.3   160  LEU160      0.0019
     69  CD1       51.0200   66.8720   -0.0850 C.3   160  LEU160      0.0001
     70  CD2       52.2520   65.1440   -1.2870 C.3   160  LEU160      0.0001
     71  N         55.2580   68.1760    1.0900 N.am  161  HIS161     -0.1976
     72  CA        56.0510   67.8970    2.3030 C.3   161  HIS161      0.1656
     73  C         56.9560   69.1010    2.5980 C.2   161  HIS161      0.2291
     74  O         57.9790   69.3080    1.9270 O.2   161  HIS161     -0.2864
     75  CB        56.8560   66.6160    2.0880 C.3   161  HIS161      0.0771
     76  CG        55.9460   65.4050    1.8610 C.ar  161  HIS161      0.0820
     77  ND1       55.6620   64.9220    0.5860 N.ar  161  HIS161     -0.2267
     78  CD2       55.2670   64.6070    2.7280 C.ar  161  HIS161      0.1154
     79  CE1       54.8510   63.8850    0.7100 C.ar  161  HIS161      0.1986
     80  NE2       54.6060   63.6850    1.9800 N.ar  161  HIS161     -0.2212
     81  N         47.8480   61.8800    8.8920 N.3   187  GLU187     -0.1245
     82  CA        47.4760   60.5970    8.2740 C.3   187  GLU187      0.1567
     83  C         47.9250   59.3920    9.1010 C.2   187  GLU187      0.2260
     84  O         48.8930   58.7000    8.7490 O.2   187  GLU187     -0.2867
     85  CB        48.1000   60.4680    6.8850 C.3   187  GLU187      0.0388
     86  CG        49.5210   61.0270    6.7930 C.3   187  GLU187      0.1160
     87  CD        50.0430   61.0570    5.3540 C.2   187  GLU187      0.3649
     88  OE1       49.8360   60.0510    4.5720 O.co2 187  GLU187     -0.2457
     89  OE2       50.6850   62.0880    4.9220 O.co2 187  GLU187     -0.2457
     90  N         55.2580   56.4830   -9.2120 N.3   205  ILE205     -0.1245
     91  CA        55.1320   57.9330   -8.9020 C.3   205  ILE205      0.1561
     92  C         56.5190   58.5810   -8.8030 C.2   205  ILE205      0.2260
     93  O         57.4410   58.0240   -8.1900 O.2   205  ILE205     -0.2867
     94  CB        54.3970   58.1630   -7.5750 C.3   205  ILE205      0.0252
     95  CG1       52.9920   57.5560   -7.5450 C.3   205  ILE205      0.0019
     96  CG2       54.2000   59.6510   -7.2520 C.3   205  ILE205      0.0019
     97  CD1       52.3090   57.6970   -6.1810 C.3   205  ILE205      0.0001
     98  N         54.2990   65.9360   -7.1670 N.2   234  PRO234     -0.2584
     99  CA        54.4430   64.5830   -7.6730 C.3   234  PRO234      0.1895
    100  C         53.4960   64.3400   -8.8230 C.2   234  PRO234      0.2359
    101  O         52.3570   64.9030   -8.8140 O.2   234  PRO234     -0.2858
    102  CB        54.1260   63.7110   -6.4820 C.2   234  PRO234      0.0071
    103  CG        53.8110   64.6230   -5.3060 C.2   234  PRO234      0.0180
    104  CD        53.9260   66.0470   -5.7560 C.2   234  PRO234      0.0937
    105  N         59.2380   57.3450   -6.3630 N.3   265  TYR265     -0.1241
    106  CA        58.4800   56.9200   -5.1720 C.3   265  TYR265      0.1605
    107  C         58.0220   55.4690   -5.3000 C.2   265  TYR265      0.2264
    108  O         56.8830   55.1940   -5.7080 O.2   265  TYR265     -0.2867
    109  CB        57.2630   57.8190   -4.9790 C.3   265  TYR265      0.0534
    110  CG        57.6510   59.2250   -4.5280 C.ar  265  TYR265     -0.0201
    111  CD1       58.1260   59.4370   -3.2280 C.ar  265  TYR265     -0.0009
    112  CD2       57.5360   60.2980   -5.4170 C.ar  265  TYR265     -0.0009
    113  CE1       58.4870   60.7250   -2.8180 C.ar  265  TYR265      0.0417
    114  CE2       57.8980   61.5860   -5.0070 C.ar  265  TYR265      0.0417
    115  CZ        58.3730   61.8000   -3.7080 C.ar  265  TYR265      0.1957
    116  OH        58.7250   63.0520   -3.3110 O.3   265  TYR265     -0.2866
    117  N         43.2880   60.1020    6.4990 N.3   280  GLU280     -0.1245
    118  CA        44.0320   61.3650    6.4400 C.3   280  GLU280      0.1567
    119  C         43.1260   62.5580    6.1290 C.2   280  GLU280      0.2260
    120  O         42.2160   62.4670    5.2910 O.2   280  GLU280     -0.2867
    121  CB        45.0940   61.2570    5.3510 C.3   280  GLU280      0.0388
    122  CG        45.8100   62.5710    5.0590 C.3   280  GLU280      0.1160
    123  CD        46.9830   62.3910    4.0960 C.2   280  GLU280      0.3649
    124  OE1       46.8580   61.6270    3.0640 O.co2 280  GLU280     -0.2457
    125  OE2       48.0980   62.9990    4.3180 O.co2 280  GLU280     -0.2457
@<TRIPOS>BOND
     1    16    17    1
     2    16    13    1
     3    17    18    2
     4    90    91    1
     5    91    92    1
     6    91    94    1
     7   100   101    2
     8   100    99    1
     9    92    93    2
    10    13    12    1
    11    13    14    1
    12    18    12    1
    13    12     3   am
    14    99    98    1
    15    99   102    1
    16    14    15    2
    17    94    95    1
    18    94    96    1
    19    95    97    1
    20     3     4    2
    21     3     2    1
    22    98   104    2
    23     2     1    1
    24     2     5    1
    25   102   103    2
    26   105   106    1
    27   104   103    1
    28   108   107    2
    29     5     6    1
    30   112   114   ar
    31   112   110   ar
    32   107   106    1
    33   106   109    1
    34    19    20    1
    35    30    29    2
    36   114   115   ar
    37   109   110    1
    38    20    21    1
    39    20    23    1
    40   110   111   ar
    41    26    24   am
    42     6     8   ar
    43     6     7   ar
    44    21    22    2
    45    29    28    1
    46     8    10   ar
    47   115   116    1
    48   115   113   ar
    49    24    23    1
    50    24    25    2
    51     7     9   ar
    52   111   113   ar
    53    10    11   ar
    54    28    31    1
    55    28    27    1
    56    40    39    2
    57    31    32    1
    58     9    11   ar
    59    39    38    1
    60    32    33   ar
    61    32    34   ar
    62    33    35   ar
    63    37    38    1
    64    70    68    1
    65    34    36   ar
    66    67    68    1
    67    67    64    1
    68    63    64    1
    69    38    41    1
    70    35    36   ar
    71    41    42    1
    72    68    69    1
    73    64    65    1
    74    44    42   ar
    75    42    43   ar
    76    77    79   ar
    77    77    76   ar
    78    79    80   ar
    79    45    46    1
    80    71    65   am
    81    71    72    1
    82    46    49    1
    83    46    47    1
    84    65    66    2
    85    51    50   ar
    86    49    50    1
    87    50    52   ar
    88    76    75    1
    89    76    78   ar
    90    74    73    2
    91    80    78   ar
    92    75    72    1
    93    47    48    2
    94    72    73    1
    95   124   123   ar
    96    61    62   ar
    97    61    59   ar
    98    62    60   ar
    99    59    58   ar
   100   123   125   ar
   101   123   122    1
   102    88    87   ar
   103    60    58   ar
   104    89    87   ar
   105    58    57    1
   106   122   121    1
   107   120   119    2
   108   121   118    1
   109    87    86    1
   110    57    54    1
   111   119   118    1
   112   118   117    1
   113    56    55    2
   114    86    85    1
   115    85    82    1
   116    55    54    1
   117    54    53    1
   118    82    81    1
   119    82    83    1
   120    84    83    2
