@<TRIPOS>MOLECULE
tmp/1wl4A00.pdb
 217 206 0 0 0
SMALL
GASTEIGER

@<TRIPOS>ATOM
      1  N          3.0380   35.8880   13.0600 N.3    18  PHE18      -0.1241
      2  CA         2.8680   37.0990   12.2400 C.3    18  PHE18       0.1605
      3  C          2.0780   36.6950   11.0130 C.2    18  PHE18       0.2264
      4  O          2.4280   35.7490   10.3020 O.2    18  PHE18      -0.2867
      5  CB         4.2540   37.6160   11.8960 C.3    18  PHE18       0.0534
      6  CG         4.3260   38.9980   11.2800 C.ar   18  PHE18      -0.0203
      7  CD1        3.4070   39.9980   11.5590 C.ar   18  PHE18      -0.0042
      8  CD2        5.4500   39.3290   10.5280 C.ar   18  PHE18      -0.0042
      9  CE1        3.5750   41.2930   11.0230 C.ar   18  PHE18      -0.0003
     10  CE2        5.6480   40.6150    9.9930 C.ar   18  PHE18      -0.0003
     11  CZ         4.7300   41.5960   10.2850 C.ar   18  PHE18      -0.0000
     12  N          0.3270   42.7210   16.0930 N.3   118  MET118     -0.1245
     13  CA         1.3540   43.2450   15.2180 C.3   118  MET118      0.1570
     14  C          1.0370   43.0170   13.7650 C.2   118  MET118      0.2261
     15  O          1.3760   43.8350   12.9260 O.2   118  MET118     -0.2867
     16  CB         2.6970   42.6560   15.5850 C.3   118  MET118      0.0387
     17  CG         3.1160   43.0780   17.0290 C.3   118  MET118      0.0595
     18  SD         4.7070   42.4290   17.5930 S.3   118  MET118     -0.1393
     19  CE         5.8150   43.5790   16.7760 C.3   118  MET118      0.0692
     20  N          8.0260   50.3830   16.7910 N.3   146  GLY146     -0.1210
     21  CA         8.1890   49.2240   17.6230 C.3   146  GLY146      0.1956
     22  C          9.6390   48.7750   17.8360 C.2   146  GLY146      0.2611
     23  O         10.0000   48.4580   18.9750 O.2   146  GLY146     -0.2717
     24  N         10.4400   48.7150   16.7500 N.am  147  LEU147     -0.1979
     25  CA        11.6650   47.9420   16.7550 C.3   147  LEU147      0.1596
     26  C         12.9540   48.6700   16.4520 C.2   147  LEU147      0.2287
     27  O         14.0150   48.0560   16.5090 O.2   147  LEU147     -0.2864
     28  CB        11.5290   46.7560   15.7850 C.3   147  LEU147      0.0297
     29  CG        10.3610   45.7720   16.0160 C.3   147  LEU147      0.0022
     30  CD1       10.3820   44.5860   15.0230 C.3   147  LEU147      0.0001
     31  CD2       10.3020   45.2490   17.4250 C.3   147  LEU147      0.0001
     32  N         18.0630   48.6430   14.6380 N.3   155  HIS155     -0.1230
     33  CA        17.0890   47.6300   15.0950 C.3   155  HIS155      0.1707
     34  C         17.4480   47.1740   16.5240 C.2   155  HIS155      0.2592
     35  O         18.6240   47.1510   16.9290 O.2   155  HIS155     -0.2718
     36  CB        17.1050   46.3500   14.1650 C.3   155  HIS155      0.0473
     37  CG        15.8140   45.5810   14.1760 C.3   155  HIS155      0.0937
     38  ND1       15.4530   44.9790   15.2780 N.3   155  HIS155     -0.1997
     39  CD2       15.0230   45.0250   13.2020 C.3   155  HIS155      0.1077
     40  CE1       14.1800   44.6220   15.2630 C.3   155  HIS155      0.1782
     41  NE2       13.9600   44.4780   13.9620 N.3   155  HIS155     -0.1983
     42  N         16.4280   46.7660   17.2730 N.am  156  MET156     -0.1979
     43  CA        16.6770   46.0380   18.4940 C.3   156  MET156      0.1605
     44  C         17.6640   44.9020   18.3110 C.2   156  MET156      0.2287
     45  O         18.4950   44.6460   19.2080 O.2   156  MET156     -0.2864
     46  CB        15.3820   45.5030   19.0470 C.3   156  MET156      0.0413
     47  CG        14.3900   46.5850   19.4920 C.3   156  MET156      0.0598
     48  SD        14.9570   47.6160   20.8420 S.3   156  MET156     -0.1393
     49  CE        15.7070   48.9990   19.9780 C.3   156  MET156      0.0692
     50  N         12.9710   26.2270   22.5010 N.3   182  GLN182     -0.1245
     51  CA        12.0530   25.4720   21.6520 C.3   182  GLN182      0.1566
     52  C         11.6550   24.1480   22.2720 C.2   182  GLN182      0.2260
     53  O         10.4830   23.7430   22.3390 O.2   182  GLN182     -0.2867
     54  CB        12.6840   25.2760   20.2730 C.3   182  GLN182      0.0367
     55  CG        12.7740   26.5430   19.4640 C.3   182  GLN182      0.0905
     56  CD        11.4860   27.0050   18.8110 C.2   182  GLN182      0.2608
     57  OE1       10.3860   26.4210   19.0410 O.2   182  GLN182     -0.2717
     58  NE2       11.5680   28.1160   18.0510 N.am  182  GLN182     -0.0878
     59  N          3.5710   29.7810   17.1110 N.3   217  PHE217     -0.1241
     60  CA         4.9610   30.1120   16.7900 C.3   217  PHE217      0.1605
     61  C          5.9880   28.9950   17.0390 C.2   217  PHE217      0.2264
     62  O          7.0090   28.9820   16.3460 O.2   217  PHE217     -0.2867
     63  CB         5.3820   31.4270   17.4550 C.3   217  PHE217      0.0534
     64  CG         6.6440   32.0450   16.9200 C.ar  217  PHE217     -0.0203
     65  CD1        6.8060   32.3340   15.5770 C.ar  217  PHE217     -0.0042
     66  CD2        7.6500   32.4480   17.7750 C.ar  217  PHE217     -0.0042
     67  CE1        7.9520   32.9450   15.1100 C.ar  217  PHE217     -0.0003
     68  CE2        8.8140   33.0670   17.2780 C.ar  217  PHE217     -0.0003
     69  CZ         8.9430   33.2860   15.9560 C.ar  217  PHE217     -0.0000
     70  N          8.5100   26.0290   16.9460 N.3   219  ARG219     -0.1245
     71  CA         9.1020   25.1790   15.8910 C.3   219  ARG219      0.1563
     72  C          9.5420   23.8390   16.4820 C.2   219  ARG219      0.2260
     73  O         10.6510   23.6860   17.0090 O.2   219  ARG219     -0.2867
     74  CB        10.2640   25.9100   15.2420 C.3   219  ARG219      0.0307
     75  CG         9.8120   27.0220   14.3140 C.3   219  ARG219      0.0489
     76  CD         9.2400   26.5630   13.0000 C.3   219  ARG219      0.2205
     77  NE        10.2730   25.9330   12.1750 N.pl3 219  ARG219     -0.0865
     78  CZ        10.9420   26.5240   11.1850 C.cat 219  ARG219      0.5346
     79  NH1       10.6990   27.7920   10.8250 N.pl3 219  ARG219      0.1354
     80  NH2       11.8520   25.8050   10.5370 N.pl3 219  ARG219      0.1354
     81  N         13.1180   21.5140   16.7690 N.3   222  SER222     -0.1217
     82  CA        14.2360   22.4180   16.5490 C.3   222  SER222      0.1889
     83  C         15.5580   21.7730   16.9300 C.2   222  SER222      0.2288
     84  O         15.6310   21.0340   17.9070 O.2   222  SER222     -0.2866
     85  CB        14.0700   23.7480   17.3260 C.3   222  SER222      0.2089
     86  OG        13.1200   24.5670   16.6440 O.3   222  SER222     -0.2183
     87  N         20.2480   22.5310   12.1410 N.3   226  ALA226     -0.1231
     88  CA        19.4900   23.3940   11.2370 C.3   226  ALA226      0.1694
     89  C         19.7390   24.8860   11.5790 C.2   226  ALA226      0.2591
     90  O         19.8690   25.7430   10.6890 O.2   226  ALA226     -0.2718
     91  CB        17.9980   23.0420   11.2760 C.3   226  ALA226      0.0304
     92  N         19.8090   25.1950   12.8800 N.am  227  MET227     -0.1979
     93  CA        19.9330   26.6030   13.2810 C.3   227  MET227      0.1605
     94  C         21.2840   27.1330   12.8590 C.2   227  MET227      0.2287
     95  O         21.4180   28.2930   12.4870 O.2   227  MET227     -0.2864
     96  CB        19.7440   26.8020   14.7950 C.3   227  MET227      0.0413
     97  CG        18.3080   26.5880   15.2810 C.3   227  MET227      0.0598
     98  SD        18.1390   27.4490   16.9060 S.3   227  MET227     -0.1393
     99  CE        16.4210   27.0220   17.2610 C.3   227  MET227      0.0692
    100  N         21.7670   29.0450    9.3480 N.3   230  LEU230     -0.1245
    101  CA        21.1390   30.2970    8.9710 C.3   230  LEU230      0.1561
    102  C         22.1310   31.4570    9.0000 C.2   230  LEU230      0.2260
    103  O         23.1130   31.4280    9.7350 O.2   230  LEU230     -0.2867
    104  CB        20.0170   30.5540    9.9660 C.3   230  LEU230      0.0270
    105  CG        18.9290   29.4730   10.0070 C.3   230  LEU230      0.0019
    106  CD1       17.9370   29.8180   11.1160 C.3   230  LEU230      0.0001
    107  CD2       18.1590   29.3900    8.6820 C.3   230  LEU230      0.0001
    108  N         20.8040   37.9960   10.5030 N.3   233  TYR233     -0.1227
    109  CA        19.7530   38.7520    9.8360 C.3   233  TYR233      0.1736
    110  C         19.9820   40.2660    9.9280 C.2   233  TYR233      0.2595
    111  O         19.7490   41.0170    8.9750 O.2   233  TYR233     -0.2718
    112  CB        18.4150   38.3760   10.4580 C.3   233  TYR233      0.0548
    113  CG        17.2660   39.0830    9.8610 C.ar  233  TYR233     -0.0200
    114  CD1       16.5580   38.5420    8.8080 C.ar  233  TYR233     -0.0009
    115  CD2       16.8610   40.3120   10.3440 C.ar  233  TYR233     -0.0009
    116  CE1       15.4890   39.1840    8.2720 C.ar  233  TYR233      0.0417
    117  CE2       15.7930   40.9570    9.8140 C.ar  233  TYR233      0.0417
    118  CZ        15.1090   40.4110    8.7860 C.ar  233  TYR233      0.1957
    119  OH        14.0250   41.0910    8.2500 O.3   233  TYR233     -0.2866
    120  N         20.4560   40.6920   11.0960 N.am  234  PHE234     -0.1976
    121  CA        20.5360   42.1220   11.4140 C.3   234  PHE234      0.1639
    122  C         21.8800   42.7510   11.0670 C.2   234  PHE234      0.2290
    123  O         21.9500   43.9370   10.6970 O.2   234  PHE234     -0.2864
    124  CB        20.2140   42.3900   12.9070 C.3   234  PHE234      0.0560
    125  CG        18.8550   41.9930   13.2750 C.ar  234  PHE234     -0.0200
    126  CD1       17.7790   42.7540   12.8980 C.ar  234  PHE234     -0.0042
    127  CD2       18.6350   40.8040   13.9260 C.ar  234  PHE234     -0.0042
    128  CE1       16.4560   42.3370   13.1850 C.ar  234  PHE234     -0.0003
    129  CE2       17.3520   40.4100   14.2600 C.ar  234  PHE234     -0.0003
    130  CZ        16.2490   41.1670   13.8680 C.ar  234  PHE234     -0.0000
    131  N         16.9490   34.6800   12.6780 N.3   244  PRO244     -0.2102
    132  CA        15.5290   34.5240   13.0170 C.3   244  PRO244      0.1504
    133  C         15.2980   33.3600   13.9920 C.2   244  PRO244      0.2575
    134  O         14.2970   33.3730   14.7360 O.2   244  PRO244     -0.2718
    135  CB        14.8490   34.3170   11.6620 C.3   244  PRO244      0.0282
    136  CG        15.8090   35.0400   10.6920 C.3   244  PRO244      0.0208
    137  CD        17.1620   34.6070   11.2220 C.3   244  PRO244      0.0893
    138  N         16.1820   32.3610   13.9970 N.am  245  ALA245     -0.1980
    139  CA        15.9900   31.2120   14.8860 C.3   245  ALA245      0.1597
    140  C         16.4510   31.4320   16.3120 C.2   245  ALA245      0.2287
    141  O         16.0420   30.6750   17.1850 O.2   245  ALA245     -0.2864
    142  CB        16.6940   29.9740   14.3430 C.3   245  ALA245      0.0319
    143  N         16.1830   34.6400   17.7270 N.3   247  ALA247     -0.1231
    144  CA        15.5010   35.8820   18.0900 C.3   247  ALA247      0.1694
    145  C         14.0170   35.5420   18.3410 C.2   247  ALA247      0.2593
    146  O         13.4570   34.6270   17.7570 O.2   247  ALA247     -0.2718
    147  CB        15.5700   36.9160   16.9930 C.3   247  ALA247      0.0304
    148  N         13.3890   36.3330   19.1960 N.am  248  SER248     -0.1938
    149  CA        11.9420   36.3340   19.2970 C.3   248  SER248      0.2055
    150  C         11.3060   36.6540   17.9500 C.2   248  SER248      0.2644
    151  O         11.9490   37.1560   17.0150 O.2   248  SER248     -0.2714
    152  CB        11.4940   37.3710   20.3720 C.3   248  SER248      0.2130
    153  OG        11.8280   38.7420   20.0210 O.3   248  SER248     -0.2179
    154  N         10.0180   36.3760   17.8480 N.am  249  GLY249     -0.1939
    155  CA         9.2410   36.6770   16.6620 C.3   249  GLY249      0.2014
    156  C          8.4820   38.0110   16.7900 C.2   249  GLY249      0.2638
    157  O          8.5150   38.7040   17.8140 O.2   249  GLY249     -0.2714
    158  N          7.8310   38.3400   15.6990 N.am  250  ILE250     -0.1977
    159  CA         6.7610   39.3310   15.6470 C.3   250  ILE250      0.1596
    160  C          5.4330   38.5660   15.7410 C.2   250  ILE250      0.2287
    161  O          5.2310   37.6160   15.0050 O.2   250  ILE250     -0.2864
    162  CB         6.8670   40.0950   14.3040 C.3   250  ILE250      0.0276
    163  CG1        8.1730   40.9190   14.3130 C.3   250  ILE250      0.0022
    164  CG2        5.6380   40.9520   14.0830 C.3   250  ILE250      0.0022
    165  CD1        8.5340   41.5390   12.9960 C.3   250  ILE250      0.0001
    166  N         20.2300   47.9450   25.5560 N.3   289  MET289     -0.1245
    167  CA        18.9620   47.9240   26.3050 C.3   289  MET289      0.1570
    168  C         18.5880   46.5390   26.8790 C.2   289  MET289      0.2261
    169  O         17.9020   46.4330   27.9020 O.2   289  MET289     -0.2867
    170  CB        17.8170   48.4640   25.4040 C.3   289  MET289      0.0387
    171  CG        17.4870   47.5980   24.2370 C.3   289  MET289      0.0595
    172  SD        16.2440   46.3350   24.6450 S.3   289  MET289     -0.1393
    173  CE        16.5290   45.0410   23.4370 C.3   289  MET289      0.0692
    174  N         13.8080   38.2620   24.4310 N.3   319  ALA319     -0.1231
    175  CA        13.8320   39.1190   23.2680 C.3   319  ALA319      0.1694
    176  C         14.7820   38.5270   22.1780 C.2   319  ALA319      0.2592
    177  O         14.4530   38.4850   20.9750 O.2   319  ALA319     -0.2718
    178  CB        14.2730   40.5280   23.6370 C.3   319  ALA319      0.0304
    179  N         15.9640   38.1200   22.6450 N.am  320  PHE320     -0.1976
    180  CA        16.9690   37.4930   21.8090 C.3   320  PHE320      0.1639
    181  C         17.7340   36.5370   22.7270 C.2   320  PHE320      0.2290
    182  O         18.0000   36.8350   23.8910 O.2   320  PHE320     -0.2864
    183  CB        17.9720   38.5360   21.2660 C.3   320  PHE320      0.0560
    184  CG        17.3260   39.5990   20.4400 C.ar  320  PHE320     -0.0200
    185  CD1       16.9120   40.7780   21.0350 C.ar  320  PHE320     -0.0042
    186  CD2       17.1030   39.4150   19.0690 C.ar  320  PHE320     -0.0042
    187  CE1       16.2510   41.7550   20.2970 C.ar  320  PHE320     -0.0003
    188  CE2       16.4180   40.4050   18.3410 C.ar  320  PHE320     -0.0003
    189  CZ        15.9840   41.5670   18.9750 C.ar  320  PHE320     -0.0000
    190  N          6.4520   37.1310   20.6910 N.3   349  HIS349     -0.1241
    191  CA         6.5890   38.3730   21.4410 C.3   349  HIS349      0.1621
    192  C          5.7010   39.4760   20.9050 C.2   349  HIS349      0.2264
    193  O          6.1760   40.3960   20.2440 O.2   349  HIS349     -0.2867
    194  CB         8.0680   38.7720   21.4060 C.3   349  HIS349      0.0745
    195  CG         8.4100   39.9810   22.2230 C.ar  349  HIS349      0.0817
    196  ND1        7.6170   40.4520   23.2500 N.ar  349  HIS349     -0.2268
    197  CD2        9.4130   40.8690   22.0930 C.ar  349  HIS349      0.1154
    198  CE1        8.1520   41.5530   23.7520 C.ar  349  HIS349      0.1986
    199  NE2        9.2540   41.8260   23.0640 N.ar  349  HIS349     -0.2212
    200  N          4.4260   42.8150   21.3830 N.3   351  LEU351     -0.1245
    201  CA         5.1240   43.7840   22.2190 C.3   351  LEU351      0.1561
    202  C          4.3730   44.1560   23.4920 C.2   351  LEU351      0.2260
    203  O          4.8980   44.0140   24.5860 O.2   351  LEU351     -0.2867
    204  CB         5.4610   45.0750   21.4390 C.3   351  LEU351      0.0270
    205  CG         6.3280   44.9030   20.2000 C.3   351  LEU351      0.0019
    206  CD1        6.5850   46.2350   19.5830 C.3   351  LEU351      0.0001
    207  CD2        7.6080   44.1470   20.4700 C.3   351  LEU351      0.0001
    208  N         13.4520   43.4720   29.2660 N.3   379  CYS379     -0.1235
    209  CA        14.1670   44.6250   28.7020 C.3   379  CYS379      0.1677
    210  C         13.2020   45.4640   27.8780 C.2   379  CYS379      0.2270
    211  O         12.1580   44.9760   27.4010 O.2   379  CYS379     -0.2867
    212  CB        15.3550   44.1730   27.8310 C.3   379  CYS379      0.0956
    213  SG        14.9310   43.2530   26.3530 S.3   379  CYS379     -0.0801
    214  N         13.1630   48.6350   24.8170 N.3   381  GLY381     -0.1225
    215  CA        13.8380   49.4810   23.8500 C.3   381  GLY381      0.1811
    216  C         13.9900   50.8950   24.3380 C.2   381  GLY381      0.2280
    217  O         13.1610   51.4020   25.0760 O.2   381  GLY381     -0.2866
@<TRIPOS>BOND
     1   119   118    1
     2   116   118   ar
     3   116   114   ar
     4   107   105    1
     5   118   117   ar
     6   114   113   ar
     7   101   102    1
     8   101   100    1
     9   101   104    1
    10   111   110    2
    11   102   103    2
    12   117   115   ar
    13   109   110    1
    14   109   112    1
    15   109   108    1
    16   113   115   ar
    17   113   112    1
    18   110   120   am
    19   104   105    1
    20    10    11   ar
    21    10     8   ar
    22   105   106    1
    23    11     9   ar
    24     4     3    2
    25     8     6   ar
    26    80    78    1
    27    90    89    2
    28   136   137    1
    29   136   135    1
    30   123   122    2
    31    79    78    1
    32     3     2    1
    33     9     7   ar
    34   122   121    1
    35   120   121    1
    36    78    77    2
    37   137   131    1
    38    88    91    1
    39    88    89    1
    40    88    87    1
    41     6     7   ar
    42     6     5    1
    43   121   124    1
    44    89    92   am
    45   135   132    1
    46     5     2    1
    47    77    76    1
    48     2     1    1
    49    95    94    2
    50   131   132    1
    51    94    93    1
    52    92    93    1
    53   126   128   ar
    54   126   125   ar
    55   124   125    1
    56    15    14    2
    57   165   163    1
    58    76    75    1
    59   132   133    1
    60   128   130   ar
    61    39    41    1
    62    39    37    1
    63   125   127   ar
    64    93    96    1
    65    14    13    1
    66   130   129   ar
    67   127   129   ar
    68    41    40    1
    69   133   138   am
    70   133   134    2
    71   138   139    1
    72   164   162    1
    73    36    37    1
    74    36    33    1
    75    37    38    1
    76   162   163    1
    77   162   159    1
    78    75    74    1
    79   142   139    1
    80    32    33    1
    81    96    97    1
    82   139   140    1
    83   161   160    2
    84    30    29    1
    85    33    34    1
    86    67    65   ar
    87    67    69   ar
    88    13    16    1
    89    13    12    1
    90    74    71    1
    91    40    38    1
    92    97    98    1
    93    65    64   ar
    94    16    17    1
    95   159   158    1
    96   159   160    1
    97   158   156   am
    98    28    29    1
    99    28    25    1
   100    71    72    1
   101    71    70    1
   102    69    68   ar
   103    29    31    1
   104   140   141    2
   105    62    61    2
   106    26    27    2
   107    26    25    1
   108    72    73    2
   109    34    35    2
   110    34    42   am
   111    82    81    1
   112    82    83    1
   113    82    85    1
   114    86    85    1
   115   155   156    1
   116   155   154    1
   117    24    25    1
   118    24    22   am
   119    19    18    1
   120   156   157    2
   121    60    61    1
   122    60    59    1
   123    60    63    1
   124    20    21    1
   125    98    99    1
   126    64    63    1
   127    64    66   ar
   128    83    84    2
   129   147   144    1
   130   151   150    2
   131    17    18    1
   132    42    43    1
   133    68    66   ar
   134    21    22    1
   135   143   144    1
   136   146   145    2
   137    22    23    2
   138   154   150   am
   139   150   149    1
   140    58    56   am
   141   144   145    1
   142    44    43    1
   143    44    45    2
   144   145   148   am
   145   188   189   ar
   146   188   186   ar
   147    43    46    1
   148    56    57    2
   149    56    55    1
   150   189   187   ar
   151    46    47    1
   152   186   184   ar
   153   148   149    1
   154   149   152    1
   155    55    54    1
   156    47    48    1
   157   206   205    1
   158    49    48    1
   159   153   152    1
   160   205   207    1
   161   205   204    1
   162   193   192    2
   163    54    51    1
   164   187   185   ar
   165   184   185   ar
   166   184   183    1
   167   190   191    1
   168   192   191    1
   169   177   176    2
   170   183   180    1
   171   200   201    1
   172   194   191    1
   173   194   195    1
   174   204   201    1
   175    51    52    1
   176    51    50    1
   177   180   179    1
   178   180   181    1
   179   197   195   ar
   180   197   199   ar
   181   176   179   am
   182   176   175    1
   183   201   202    1
   184   195   196   ar
   185    52    53    2
   186   181   182    2
   187   199   198   ar
   188   196   198   ar
   189   175   178    1
   190   175   174    1
   191   173   172    1
   192   202   203    2
   193   215   216    1
   194   215   214    1
   195   171   172    1
   196   171   170    1
   197   216   217    2
   198   170   167    1
   199   166   167    1
   200   167   168    1
   201   213   212    1
   202   168   169    2
   203   211   210    2
   204   212   209    1
   205   210   209    1
   206   209   208    1
