@<TRIPOS>MOLECULE
tmp/1wl6A00.pdb
 102 100 0 0 0
SMALL
GASTEIGER

@<TRIPOS>ATOM
      1  N         67.6370   57.3930   56.4230 N.3   229  TYR229     -0.1227
      2  CA        66.5210   56.8870   57.2380 C.3   229  TYR229      0.1736
      3  C         67.1190   56.1800   58.4380 C.2   229  TYR229      0.2595
      4  O         68.3020   55.8360   58.4430 O.2   229  TYR229     -0.2718
      5  CB        65.6220   55.9040   56.4840 C.3   229  TYR229      0.0548
      6  CG        66.3910   54.7790   55.8500 C.ar  229  TYR229     -0.0200
      7  CD1       67.0120   54.9440   54.6100 C.ar  229  TYR229     -0.0009
      8  CD2       66.5690   53.5690   56.5160 C.ar  229  TYR229     -0.0009
      9  CE1       67.7400   53.9270   54.0450 C.ar  229  TYR229      0.0417
     10  CE2       67.3080   52.5510   55.9520 C.ar  229  TYR229      0.0417
     11  CZ        67.8680   52.7210   54.7060 C.ar  229  TYR229      0.1957
     12  OH        68.6140   51.6800   54.1610 O.3   229  TYR229     -0.2866
     13  N         66.2970   55.9550   59.4440 N.am  230  ASN230     -0.1974
     14  CA        66.7570   55.3360   60.6790 C.3   230  ASN230      0.1688
     15  C         67.1890   53.8840   60.4460 C.2   230  ASN230      0.2292
     16  O         66.4510   53.0660   59.9220 O.2   230  ASN230     -0.2864
     17  CB        65.7030   55.4620   61.7760 C.3   230  ASN230      0.1181
     18  CG        65.3200   56.9100   62.0530 C.2   230  ASN230      0.2629
     19  OD1       66.1610   57.7860   62.0420 O.2   230  ASN230     -0.2716
     20  ND2       64.0460   57.1530   62.3110 N.am  230  ASN230     -0.0877
     21  N         68.1710   50.0790   60.5440 N.3   232  ILE232     -0.1245
     22  CA        67.5090   48.8620   60.9990 C.3   232  ILE232      0.1561
     23  C         68.5380   47.7570   61.1630 C.2   232  ILE232      0.2260
     24  O         69.2320   47.4050   60.2080 O.2   232  ILE232     -0.2867
     25  CB        66.4890   48.4050   59.9420 C.3   232  ILE232      0.0252
     26  CG1       65.3380   49.4100   59.8360 C.3   232  ILE232      0.0019
     27  CG2       65.9510   46.9930   60.2270 C.3   232  ILE232      0.0019
     28  CD1       64.7240   49.4810   58.4500 C.3   232  ILE232      0.0001
     29  N         60.6600   47.5490   59.6320 N.3   243  HIS243     -0.1241
     30  CA        61.4320   48.7330   60.0020 C.3   243  HIS243      0.1621
     31  C         61.7920   48.7080   61.4970 C.2   243  HIS243      0.2264
     32  O         61.5730   49.6900   62.1990 O.2   243  HIS243     -0.2867
     33  CB        60.6550   50.0160   59.6500 C.3   243  HIS243      0.0745
     34  CG        60.4960   50.2530   58.1700 C.ar  243  HIS243      0.0817
     35  ND1       59.7350   51.2820   57.6570 N.ar  243  HIS243     -0.2268
     36  CD2       61.0150   49.6020   57.0970 C.ar  243  HIS243      0.1154
     37  CE1       59.7910   51.2540   56.3360 C.ar  243  HIS243      0.1986
     38  NE2       60.5650   50.2470   55.9720 N.ar  243  HIS243     -0.2212
     39  N         55.3620   43.4920   51.3910 N.3   350  HIS350     -0.1226
     40  CA        55.6810   44.8420   50.9670 C.3   350  HIS350      0.1752
     41  C         56.0130   44.8610   49.4770 C.2   350  HIS350      0.2596
     42  O         56.0530   43.8120   48.8140 O.2   350  HIS350     -0.2718
     43  CB        56.8030   45.4560   51.8260 C.3   350  HIS350      0.0759
     44  CG        58.0930   44.6890   51.8120 C.ar  350  HIS350      0.0818
     45  ND1       59.0110   44.7910   50.7850 N.ar  350  HIS350     -0.2268
     46  CD2       58.6380   43.8400   52.7240 C.ar  350  HIS350      0.1154
     47  CE1       60.0530   44.0170   51.0550 C.ar  350  HIS350      0.1986
     48  NE2       59.8580   43.4400   52.2290 N.ar  350  HIS350     -0.2212
     49  N         56.2170   46.0620   48.9520 N.am  351  GLY351     -0.1957
     50  CA        56.5280   46.2300   47.5370 C.3   351  GLY351      0.1869
     51  C         57.9590   45.8120   47.2330 C.2   351  GLY351      0.2309
     52  O         58.8450   45.8650   48.1110 O.2   351  GLY351     -0.2863
     53  N         60.8290   50.7350   45.2200 N.3   354  HIS354     -0.1241
     54  CA        60.4020   52.1310   45.2720 C.3   354  HIS354      0.1621
     55  C         61.4300   53.0220   44.5900 C.2   354  HIS354      0.2264
     56  O         62.5960   52.6930   44.5050 O.2   354  HIS354     -0.2867
     57  CB        60.1640   52.5990   46.7170 C.3   354  HIS354      0.0745
     58  CG        61.3420   52.4190   47.6180 C.ar  354  HIS354      0.0817
     59  ND1       62.3820   53.3220   47.6780 N.ar  354  HIS354     -0.2268
     60  CD2       61.6480   51.4330   48.4910 C.ar  354  HIS354      0.1154
     61  CE1       63.2840   52.8900   48.5450 C.ar  354  HIS354      0.1986
     62  NE2       62.8630   51.7450   49.0530 N.ar  354  HIS354     -0.2212
     63  N         64.3770   58.7560   50.3600 N.3   360  VAL360     -0.1231
     64  CA        64.5770   57.3210   50.2060 C.3   360  VAL360      0.1692
     65  C         63.3550   56.6640   49.5840 C.2   360  VAL360      0.2592
     66  O         63.4960   55.7930   48.7410 O.2   360  VAL360     -0.2718
     67  CB        64.9770   56.6210   51.5350 C.3   360  VAL360      0.0266
     68  CG1       63.8600   56.6430   52.5390 C.3   360  VAL360      0.0020
     69  CG2       65.4080   55.1880   51.2490 C.3   360  VAL360      0.0020
     70  N         62.1590   57.1070   49.9690 N.am  361  HIS361     -0.1976
     71  CA        60.9540   56.7530   49.2300 C.3   361  HIS361      0.1656
     72  C         60.6320   57.9300   48.3310 C.2   361  HIS361      0.2291
     73  O         59.8960   58.8450   48.7130 O.2   361  HIS361     -0.2864
     74  CB        59.7950   56.4130   50.1670 C.3   361  HIS361      0.0771
     75  CG        60.0820   55.2450   51.0460 C.ar  361  HIS361      0.0820
     76  ND1       59.4790   55.0640   52.2660 N.ar  361  HIS361     -0.2267
     77  CD2       60.9710   54.2290   50.9090 C.ar  361  HIS361      0.1154
     78  CE1       59.9580   53.9640   52.8300 C.ar  361  HIS361      0.1986
     79  NE2       60.8580   53.4320   52.0220 N.ar  361  HIS361     -0.2212
     80  N         53.7390   56.2700   40.2790 N.3   366  TYR366     -0.1241
     81  CA        54.0270   54.8370   40.0890 C.3   366  TYR366      0.1605
     82  C         53.0970   54.1840   39.0760 C.2   366  TYR366      0.2264
     83  O         53.3910   53.1150   38.5350 O.2   366  TYR366     -0.2867
     84  CB        53.8300   54.1020   41.4140 C.3   366  TYR366      0.0534
     85  CG        54.9770   54.2150   42.3640 C.ar  366  TYR366     -0.0201
     86  CD1       56.0730   53.3630   42.2480 C.ar  366  TYR366     -0.0009
     87  CD2       54.9670   55.1560   43.3860 C.ar  366  TYR366     -0.0009
     88  CE1       57.1490   53.4430   43.1350 C.ar  366  TYR366      0.0417
     89  CE2       56.0140   55.2470   44.2710 C.ar  366  TYR366      0.0417
     90  CZ        57.1170   54.3830   44.1470 C.ar  366  TYR366      0.1957
     91  OH        58.1610   54.4710   45.0360 O.3   366  TYR366     -0.2866
     92  N         51.8080   50.1040   40.5900 N.3   370  ARG370     -0.1245
     93  CA        53.1870   50.3300   40.1160 C.3   370  ARG370      0.1563
     94  C         53.4120   49.7800   38.7170 C.2   370  ARG370      0.2260
     95  O         54.4740   49.1770   38.4130 O.2   370  ARG370     -0.2867
     96  CB        54.1910   49.7510   41.1030 C.3   370  ARG370      0.0307
     97  CG        53.9040   50.2080   42.5350 C.3   370  ARG370      0.0489
     98  CD        54.9950   49.8300   43.5320 C.3   370  ARG370      0.2205
     99  NE        54.4640   49.8660   44.9040 N.pl3 370  ARG370     -0.0865
    100  CZ        55.1740   49.8280   46.0290 C.cat 370  ARG370      0.5346
    101  NH1       56.4990   49.8240   46.0120 N.pl3 370  ARG370      0.1354
    102  NH2       54.5420   49.8220   47.2020 N.pl3 370  ARG370      0.1354
@<TRIPOS>BOND
     1    95    94    2
     2    83    82    2
     3    94    93    1
     4    82    81    1
     5    81    80    1
     6    81    84    1
     7    93    92    1
     8    93    96    1
     9    96    97    1
    10    84    85    1
    11    86    85   ar
    12    86    88   ar
    13    85    87   ar
    14    97    98    1
    15    88    90   ar
    16    87    89   ar
    17    98    99    1
    18    90    89   ar
    19    90    91    1
    20    56    55    2
    21    55    54    1
    22    99   100    2
    23    53    54    1
    24    54    57    1
    25   101   100    1
    26   100   102    1
    27    57    58    1
    28    51    50    1
    29    51    52    2
    30    50    49    1
    31    58    59   ar
    32    58    60   ar
    33    59    61   ar
    34    72    73    2
    35    72    71    1
    36    60    62   ar
    37    61    62   ar
    38    66    65    2
    39    42    41    2
    40    49    41   am
    41    71    70    1
    42    71    74    1
    43    41    40    1
    44    65    70   am
    45    65    64    1
    46    74    75    1
    47    64    63    1
    48    64    67    1
    49    45    47   ar
    50    45    44   ar
    51    77    75   ar
    52    77    79   ar
    53    40    39    1
    54    40    43    1
    55    75    76   ar
    56    47    48   ar
    57    69    67    1
    58    67    68    1
    59    44    43    1
    60    44    46   ar
    61    79    78   ar
    62    48    46   ar
    63    76    78   ar
    64     9     7   ar
    65     9    11   ar
    66    12    11    1
    67     7     6   ar
    68    11    10   ar
    69     6     5    1
    70     6     8   ar
    71    10     8   ar
    72    38    37   ar
    73    38    36   ar
    74    37    35   ar
    75     1     2    1
    76     5     2    1
    77    36    34   ar
    78     2     3    1
    79    35    34   ar
    80    34    33    1
    81     3     4    2
    82     3    13   am
    83    28    26    1
    84    13    14    1
    85    29    30    1
    86    33    30    1
    87    26    25    1
    88    16    15    2
    89    25    27    1
    90    25    22    1
    91    30    31    1
    92    24    23    2
    93    15    14    1
    94    21    22    1
    95    14    17    1
    96    22    23    1
    97    31    32    2
    98    17    18    1
    99    19    18    2
   100    18    20   am
