@<TRIPOS>MOLECULE
tmp/1wlcA00.pdb
 108 101 0 0 0
SMALL
GASTEIGER

@<TRIPOS>ATOM
      1  N         32.8280   22.0080    2.7170 N.3     1  ASP1       -0.1225
      2  CA        33.1350   21.2090    3.9620 C.3     1  ASP1        0.1805
      3  C         31.8690   20.5970    4.5650 C.2     1  ASP1        0.2597
      4  O         31.5700   19.3940    4.4970 O.2     1  ASP1       -0.2718
      5  CB        33.8930   22.1200    4.9050 C.3     1  ASP1        0.1424
      6  CG        34.2080   21.7300    6.3250 C.2     1  ASP1        0.3668
      7  OD1       34.3490   20.5170    6.6240 O.co2   1  ASP1       -0.2456
      8  OD2       34.3480   22.6390    7.1990 O.co2   1  ASP1       -0.2456
      9  N         31.0740   21.4720    5.1950 N.am    2  ARG2       -0.1979
     10  CA        29.8240   21.0260    5.8110 C.3     2  ARG2        0.1597
     11  C         28.8780   20.5350    4.7150 C.2     2  ARG2        0.2287
     12  O         28.9040   20.9980    3.5720 O.2     2  ARG2       -0.2864
     13  CB        29.2270   22.1850    6.5900 C.3     2  ARG2        0.0334
     14  CG        28.4350   23.1830    5.7830 C.3     2  ARG2        0.0492
     15  CD        28.0590   24.3870    6.6500 C.3     2  ARG2        0.2205
     16  NE        29.2030   25.2650    6.8110 N.pl3   2  ARG2       -0.0865
     17  CZ        29.5010   26.3010    6.0230 C.cat   2  ARG2        0.5346
     18  NH1       28.7030   26.6080    5.0120 N.pl3   2  ARG2        0.1354
     19  NH2       30.5610   27.0530    6.2270 N.pl3   2  ARG2        0.1354
     20  N         31.9570   15.1850   18.3660 N.3    28  ARG28      -0.1245
     21  CA        30.5800   15.7000   18.3270 C.3    28  ARG28       0.1563
     22  C         30.2510   16.1250   16.8930 C.2    28  ARG28       0.2260
     23  O         31.1750   16.4660   16.1700 O.2    28  ARG28      -0.2867
     24  CB        30.4490   16.8990   19.2640 C.3    28  ARG28       0.0307
     25  CG        31.4870   17.9760   18.9910 C.3    28  ARG28       0.0489
     26  CD        31.5780   19.0450   20.0710 C.3    28  ARG28       0.2205
     27  NE        30.5810   20.0910   20.0260 N.pl3  28  ARG28      -0.0865
     28  CZ        30.6230   21.3490   19.6360 C.cat  28  ARG28       0.5346
     29  NH1       29.5770   22.1760   19.6560 N.pl3  28  ARG28       0.1354
     30  NH2       31.7530   21.9200   19.1990 N.pl3  28  ARG28       0.1354
     31  N         26.7570   18.2930   14.7090 N.3    30  SER30      -0.1217
     32  CA        25.4390   18.9000   14.9240 C.3    30  SER30       0.1889
     33  C         24.5960   18.9050   13.6410 C.2    30  SER30       0.2288
     34  O         25.1540   18.8520   12.5370 O.2    30  SER30      -0.2866
     35  CB        25.5930   20.3400   15.4620 C.3    30  SER30       0.2089
     36  OG        26.2850   21.1910   14.5180 O.3    30  SER30      -0.2183
     37  N         21.7890   21.5990   12.1230 N.3    32  ASN32      -0.1240
     38  CA        21.3890   22.9860   12.3170 C.3    32  ASN32       0.1653
     39  C         20.3580   23.4430   11.2880 C.2    32  ASN32       0.2266
     40  O         20.4800   23.1600   10.0960 O.2    32  ASN32      -0.2867
     41  CB        22.6330   23.8560   12.1840 C.3    32  ASN32       0.1155
     42  CG        23.7520   23.3900   13.1110 C.2    32  ASN32       0.2627
     43  OD1       23.8200   23.8410   14.2500 O.2    32  ASN32      -0.2716
     44  ND2       24.6380   22.5010   12.6890 N.am   32  ASN32      -0.0877
     45  N         25.4630   30.2110    9.1900 N.3    37  THR37      -0.1218
     46  CA        26.3240   29.5300   10.1730 C.3    37  THR37       0.1862
     47  C         26.4550   30.3660   11.4640 C.2    37  THR37       0.2287
     48  O         27.0340   29.9190   12.4580 O.2    37  THR37      -0.2866
     49  CB        27.7260   29.2680    9.6210 C.3    37  THR37       0.1770
     50  OG1       28.3250   30.4800    9.2050 O.3    37  THR37      -0.2211
     51  CG2       27.7210   28.3150    8.4250 C.3    37  THR37       0.0375
     52  N         21.2930   30.3910   13.8630 N.3    40  ILE40      -0.1245
     53  CA        20.6620   29.0610   13.9280 C.3    40  ILE40       0.1561
     54  C         19.5040   29.0430   14.9370 C.2    40  ILE40       0.2260
     55  O         19.6650   29.3910   16.1130 O.2    40  ILE40      -0.2867
     56  CB        21.7300   28.0360   14.3390 C.3    40  ILE40       0.0252
     57  CG1       23.0180   28.1720   13.4960 C.3    40  ILE40       0.0019
     58  CG2       21.2570   26.5890   14.1810 C.3    40  ILE40       0.0019
     59  CD1       24.1790   27.2980   13.9870 C.3    40  ILE40       0.0001
     60  N         19.7940   24.3620   16.9060 N.3    43  HIS43      -0.1241
     61  CA        21.0460   23.5870   16.8450 C.3    43  HIS43       0.1621
     62  C         20.9470   22.3250   17.6770 C.2    43  HIS43       0.2264
     63  O         20.5880   22.4710   18.8610 O.2    43  HIS43      -0.2867
     64  CB        22.1020   24.5570   17.4000 C.3    43  HIS43       0.0745
     65  CG        23.4120   23.9150   17.7410 C.ar   43  HIS43       0.0817
     66  ND1       24.3030   23.5180   16.7820 N.ar   43  HIS43      -0.2268
     67  CD2       23.9280   23.5850   18.9570 C.ar   43  HIS43       0.1154
     68  CE1       25.3590   23.0130   17.4270 C.ar   43  HIS43       0.1986
     69  NE2       25.1620   23.0120   18.7290 N.ar   43  HIS43      -0.2212
     70  N         21.3610   30.1900   18.1640 N.3    62  LEU62      -0.1245
     71  CA        22.5190   31.0210   17.9480 C.3    62  LEU62       0.1561
     72  C         22.0390   32.2860   17.2280 C.2    62  LEU62       0.2260
     73  O         21.4470   32.1880   16.1430 O.2    62  LEU62      -0.2867
     74  CB        23.6190   30.3170   17.1560 C.3    62  LEU62       0.0270
     75  CG        24.7500   31.2380   16.6640 C.3    62  LEU62       0.0019
     76  CD1       25.5400   31.7670   17.8480 C.3    62  LEU62       0.0001
     77  CD2       25.6590   30.4190   15.7200 C.3    62  LEU62       0.0001
     78  N         25.2340   32.1750   21.6280 N.3    68  TRP68      -0.1241
     79  CA        24.3440   31.0880   22.0330 C.3    68  TRP68       0.1605
     80  C         23.4360   31.5370   23.1580 C.2    68  TRP68       0.2264
     81  O         23.8600   32.2750   24.0740 O.2    68  TRP68      -0.2867
     82  CB        25.2410   29.9290   22.4720 C.3    68  TRP68       0.0550
     83  CG        26.0270   29.3830   21.2950 C.ar   68  TRP68       0.0003
     84  CD1       27.3470   29.5970   21.0000 C.ar   68  TRP68       0.0946
     85  CD2       25.4980   28.5160   20.2760 C.ar   68  TRP68       0.0152
     86  NE1       27.6670   28.9090   19.8470 N.ar   68  TRP68      -0.2442
     87  CE2       26.5470   28.2420   19.3920 C.ar   68  TRP68       0.0810
     88  CE3       24.2240   27.9860   20.0130 C.ar   68  TRP68       0.0012
     89  CZ2       26.3670   27.4530   18.2550 C.ar   68  TRP68       0.0191
     90  CZ3       24.0380   27.1650   18.9000 C.ar   68  TRP68       0.0001
     91  CH2       25.1040   26.9290   18.0310 C.ar   68  TRP68       0.0015
     92  N         22.1210   22.5220    7.8320 N.3   121  TYR121     -0.1241
     93  CA        23.4800   22.0290    7.6620 C.3   121  TYR121      0.1605
     94  C         23.8970   21.1080    8.7980 C.2   121  TYR121      0.2264
     95  O         23.4510   21.1980    9.9240 O.2   121  TYR121     -0.2867
     96  CB        24.5380   23.0980    7.4920 C.3   121  TYR121      0.0534
     97  CG        24.9990   23.9830    8.6060 C.ar  121  TYR121     -0.0201
     98  CD1       26.1420   23.6940    9.3640 C.ar  121  TYR121     -0.0009
     99  CD2       24.3460   25.1810    8.9050 C.ar  121  TYR121     -0.0009
    100  CE1       26.5990   24.5420   10.3470 C.ar  121  TYR121      0.0417
    101  CE2       24.7940   26.0400    9.9030 C.ar  121  TYR121      0.0417
    102  CZ        25.9170   25.7050   10.6280 C.ar  121  TYR121      0.1957
    103  OH        26.3740   26.5660   11.6050 O.3   121  TYR121     -0.2866
    104  N         27.4240   19.8570   10.7540 N.3   123  ALA123     -0.1245
    105  CA        28.8070   20.2110   10.9910 C.3   123  ALA123      0.1562
    106  C         29.4250   19.1990   11.9570 C.2   123  ALA123      0.2260
    107  O         28.6940   18.4260   12.6040 O.2   123  ALA123     -0.2867
    108  CB        28.8680   21.6140   11.5590 C.3   123  ALA123      0.0290
@<TRIPOS>BOND
     1     1     2    1
     2    12    11    2
     3     2     3    1
     4     2     5    1
     5     4     3    2
     6     3     9   am
     7    11    10    1
     8     5     6    1
     9    18    17    1
    10     9    10    1
    11    14    13    1
    12    14    15    1
    13    10    13    1
    14    17    19    1
    15    17    16    2
    16     6     7   ar
    17     6     8   ar
    18    15    16    1
    19    96    93    1
    20    96    97    1
    21    93    92    1
    22    93    94    1
    23    51    49    1
    24    97    99   ar
    25    97    98   ar
    26    94    95    2
    27    99   101   ar
    28    45    46    1
    29    50    49    1
    30    98   100   ar
    31    49    46    1
    32   101   102   ar
    33    40    39    2
    34    46    47    1
    35   100   102   ar
    36   102   103    1
    37   104   105    1
    38   105   108    1
    39   105   106    1
    40    39    38    1
    41    47    48    2
    42   106   107    2
    43    37    38    1
    44    41    38    1
    45    41    42    1
    46    34    33    2
    47    44    42   am
    48    42    43    2
    49    57    59    1
    50    57    56    1
    51    33    32    1
    52    52    53    1
    53    53    56    1
    54    53    54    1
    55    58    56    1
    56    36    35    1
    57    31    32    1
    58    32    35    1
    59    54    55    2
    60    77    75    1
    61    73    72    2
    62    23    22    2
    63    75    74    1
    64    75    76    1
    65    66    68   ar
    66    66    65   ar
    67    61    60    1
    68    61    64    1
    69    61    62    1
    70    22    21    1
    71    74    71    1
    72    72    71    1
    73    64    65    1
    74    68    69   ar
    75    62    63    2
    76    65    67   ar
    77    71    70    1
    78    91    89   ar
    79    91    90   ar
    80    89    87   ar
    81    21    20    1
    82    21    24    1
    83    69    67   ar
    84    90    88   ar
    85    25    24    1
    86    25    26    1
    87    30    28    1
    88    87    86   ar
    89    87    85   ar
    90    28    29    1
    91    28    27    2
    92    86    84   ar
    93    88    85   ar
    94    27    26    1
    95    85    83   ar
    96    84    83   ar
    97    83    82    1
    98    78    79    1
    99    79    82    1
   100    79    80    1
   101    80    81    2
