@<TRIPOS>MOLECULE
tmp/1wldA01.pdb
 89 83 0 0 0
SMALL
GASTEIGER

@<TRIPOS>ATOM
      1  N         21.3950   31.1440   34.7710 N.3     2  ARG2       -0.1245
      2  CA        20.9920   29.8900   34.1660 C.3     2  ARG2        0.1563
      3  C         20.5800   28.9110   35.2730 C.2     2  ARG2        0.2260
      4  O         21.0070   28.9810   36.4180 O.2     2  ARG2       -0.2867
      5  CB        22.0950   29.2650   33.3200 C.3     2  ARG2        0.0307
      6  CG        23.3440   28.9590   34.1100 C.3     2  ARG2        0.0489
      7  CD        24.5300   28.5730   33.2170 C.3     2  ARG2        0.2205
      8  NE        25.6930   28.4850   34.0840 N.pl3   2  ARG2       -0.0865
      9  CZ        26.6960   29.3180   34.2800 C.cat   2  ARG2        0.5346
     10  NH1       26.8580   30.4510   33.6220 N.pl3   2  ARG2        0.1354
     11  NH2       27.5960   28.9570   35.1900 N.pl3   2  ARG2        0.1354
     12  N         18.3370   26.8150   25.1970 N.3    30  SER30      -0.1217
     13  CA        18.9710   25.5040   24.9530 C.3    30  SER30       0.1889
     14  C         18.9990   24.6570   26.2170 C.2    30  SER30       0.2288
     15  O         18.9900   25.2150   27.3170 O.2    30  SER30      -0.2866
     16  CB        20.3950   25.7170   24.4240 C.3    30  SER30       0.2089
     17  OG        21.1830   26.4160   25.3920 O.3    30  SER30      -0.2183
     18  N         21.6020   21.7510   27.8440 N.3    32  ASN32      -0.1240
     19  CA        23.0130   21.4540   27.5870 C.3    32  ASN32       0.1653
     20  C         23.5280   20.3880   28.5560 C.2    32  ASN32       0.2266
     21  O         23.2350   20.5090   29.7460 O.2    32  ASN32      -0.2867
     22  CB        23.8770   22.7130   27.8180 C.3    32  ASN32       0.1155
     23  CG        23.4520   23.8450   26.8950 C.2    32  ASN32       0.2627
     24  OD1       23.9430   23.9100   25.7700 O.2    32  ASN32      -0.2716
     25  ND2       22.5060   24.6920   27.3400 N.am   32  ASN32      -0.0877
     26  N         30.2540   25.5710   30.7580 N.3    37  THR37      -0.1218
     27  CA        29.6760   26.4350   29.7280 C.3    37  THR37       0.1862
     28  C         30.5630   26.5270   28.4860 C.2    37  THR37       0.2287
     29  O         30.1370   27.1320   27.4920 O.2    37  THR37      -0.2866
     30  CB        29.4040   27.8540   30.2740 C.3    37  THR37       0.1770
     31  OG1       30.6490   28.3760   30.7610 O.3    37  THR37      -0.2211
     32  CG2       28.3770   27.8170   31.3910 C.3    37  THR37       0.0375
     33  N         30.5230   21.2690   26.0150 N.3    40  ILE40      -0.1245
     34  CA        29.1520   20.7530   25.9920 C.3    40  ILE40       0.1561
     35  C         29.0650   19.5450   25.0720 C.2    40  ILE40       0.2260
     36  O         29.3870   19.6750   23.8930 O.2    40  ILE40      -0.2867
     37  CB        28.1490   21.8470   25.5680 C.3    40  ILE40       0.0252
     38  CG1       28.2470   23.1020   26.4460 C.3    40  ILE40       0.0019
     39  CG2       26.7210   21.2930   25.5940 C.3    40  ILE40       0.0019
     40  CD1       27.4280   24.2950   26.0110 C.3    40  ILE40       0.0001
     41  N         24.3580   19.9230   23.0980 N.3    43  HIS43      -0.1241
     42  CA        23.6240   21.1650   23.1220 C.3    43  HIS43       0.1621
     43  C         22.3950   21.0440   22.2260 C.2    43  HIS43       0.2264
     44  O         22.5680   20.6980   21.0540 O.2    43  HIS43      -0.2867
     45  CB        24.5110   22.2900   22.6070 C.3    43  HIS43       0.0745
     46  CG        23.9240   23.5900   22.2260 C.ar   43  HIS43       0.0817
     47  ND1       23.5830   24.5650   23.1510 N.ar   43  HIS43      -0.2268
     48  CD2       23.6510   24.1230   20.9990 C.ar   43  HIS43       0.1154
     49  CE1       23.1400   25.6330   22.5010 C.ar   43  HIS43       0.1986
     50  NE2       23.1510   25.3890   21.2060 N.ar   43  HIS43      -0.2212
     51  N         30.1830   21.4460   21.8330 N.3    62  LEU62      -0.1245
     52  CA        31.0680   22.5750   22.0080 C.3    62  LEU62       0.1561
     53  C         32.3170   22.0930   22.7290 C.2    62  LEU62       0.2260
     54  O         32.2330   21.4320   23.7580 O.2    62  LEU62      -0.2867
     55  CB        30.3840   23.6880   22.8050 C.3    62  LEU62       0.0270
     56  CG        31.3040   24.8290   23.2600 C.3    62  LEU62       0.0019
     57  CD1       31.7810   25.5940   22.0310 C.3    62  LEU62       0.0001
     58  CD2       30.5520   25.8090   24.1430 C.3    62  LEU62       0.0001
     59  N         32.3230   25.2360   18.2300 N.3    68  TRP68      -0.1241
     60  CA        31.2070   24.3970   17.8330 C.3    68  TRP68       0.1605
     61  C         31.6340   23.4690   16.7050 C.2    68  TRP68       0.2264
     62  O         32.4240   23.8540   15.8140 O.2    68  TRP68      -0.2867
     63  CB        30.0150   25.2640   17.4220 C.3    68  TRP68       0.0550
     64  CG        29.4570   26.0060   18.6020 C.ar   68  TRP68       0.0003
     65  CD1       29.6440   27.3100   18.9260 C.ar   68  TRP68       0.0946
     66  CD2       28.6290   25.4380   19.6380 C.ar   68  TRP68       0.0152
     67  NE1       28.9780   27.6190   20.0930 N.ar   68  TRP68      -0.2442
     68  CE2       28.3590   26.4810   20.5450 C.ar   68  TRP68       0.0810
     69  CE3       28.0860   24.1860   19.8840 C.ar   68  TRP68       0.0012
     70  CZ2       27.5540   26.3010   21.6770 C.ar   68  TRP68       0.0191
     71  CZ3       27.3070   23.9890   21.0150 C.ar   68  TRP68       0.0001
     72  CH2       27.0520   25.0520   21.8870 C.ar   68  TRP68       0.0015
     73  N         22.5890   22.1740   32.0390 N.3   121  TYR121     -0.1241
     74  CA        22.0480   23.5110   32.2630 C.3   121  TYR121      0.1605
     75  C         21.1490   23.9830   31.1220 C.2   121  TYR121      0.2264
     76  O         21.2480   23.5430   29.9930 O.2   121  TYR121     -0.2867
     77  CB        23.1220   24.5400   32.5120 C.3   121  TYR121      0.0534
     78  CG        24.0080   25.0090   31.3870 C.ar  121  TYR121     -0.0201
     79  CD1       23.6780   26.1650   30.6870 C.ar  121  TYR121     -0.0009
     80  CD2       25.1900   24.3690   31.0670 C.ar  121  TYR121     -0.0009
     81  CE1       24.4910   26.6650   29.6810 C.ar  121  TYR121      0.0417
     82  CE2       26.0300   24.8680   30.0830 C.ar  121  TYR121      0.0417
     83  CZ        25.6590   26.0030   29.3900 C.ar  121  TYR121      0.1957
     84  OH        26.5130   26.4850   28.4040 O.3   121  TYR121     -0.2866
     85  N         19.8590   27.4370   29.1470 N.3   123  ALA123     -0.1245
     86  CA        20.2510   28.7990   28.8720 C.3   123  ALA123      0.1562
     87  C         19.2300   29.4250   27.9090 C.2   123  ALA123      0.2260
     88  O         18.4650   28.6800   27.2850 O.2   123  ALA123     -0.2867
     89  CB        21.6470   28.8560   28.2590 C.3   123  ALA123      0.0290
@<TRIPOS>BOND
     1    62    61    2
     2    61    60    1
     3    63    60    1
     4    63    64    1
     5    60    59    1
     6    64    65   ar
     7    64    66   ar
     8    65    67   ar
     9    66    69   ar
    10    66    68   ar
    11    69    71   ar
    12    67    68   ar
    13    68    70   ar
    14    48    50   ar
    15    48    46   ar
    16    71    72   ar
    17    44    43    2
    18    50    49   ar
    19    70    72   ar
    20    51    52    1
    21    52    53    1
    22    52    55    1
    23    57    56    1
    24    46    45    1
    25    46    47   ar
    26    43    42    1
    27    49    47   ar
    28    45    42    1
    29    53    54    2
    30    55    56    1
    31    41    42    1
    32    56    58    1
    33    36    35    2
    34    16    13    1
    35    16    17    1
    36    13    12    1
    37    13    14    1
    38    35    34    1
    39    37    39    1
    40    37    34    1
    41    37    38    1
    42    24    23    2
    43    34    33    1
    44    40    38    1
    45    14    15    2
    46    23    25   am
    47    23    22    1
    48    88    87    2
    49    29    28    2
    50    19    22    1
    51    19    18    1
    52    19    20    1
    53    87    86    1
    54    89    86    1
    55    84    83    1
    56    28    27    1
    57    20    21    2
    58    86    85    1
    59    83    81   ar
    60    83    82   ar
    61    81    79   ar
    62    27    30    1
    63    27    26    1
    64    76    75    2
    65    82    80   ar
    66    30    31    1
    67    30    32    1
    68    79    78   ar
    69    80    78   ar
    70    75    74    1
    71    78    77    1
    72    73    74    1
    73    74    77    1
    74     7     8    1
    75     7     6    1
    76     5     6    1
    77     5     2    1
    78    10     9    1
    79     8     9    2
    80     2     1    1
    81     2     3    1
    82     9    11    1
    83     3     4    2
