@<TRIPOS>MOLECULE
tmp/1wldA00.pdb
 109 102 0 0 0
SMALL
GASTEIGER

@<TRIPOS>ATOM
      1  N         15.1680   31.9490   21.5560 N.3    28  ARG28      -0.1245
      2  CA        15.7540   30.6310   21.6280 C.3    28  ARG28       0.1563
      3  C         16.1300   30.2880   23.0820 C.2    28  ARG28       0.2260
      4  O         16.4220   31.2160   23.8530 O.2    28  ARG28      -0.2867
      5  CB        17.0060   30.5500   20.7130 C.3    28  ARG28       0.0307
      6  CG        18.0010   31.6530   21.0850 C.3    28  ARG28       0.0489
      7  CD        19.1130   31.9190   20.0860 C.3    28  ARG28       0.2205
      8  NE        20.0660   30.8430   20.0660 N.pl3  28  ARG28      -0.0865
      9  CZ        21.3700   30.8560   20.2910 C.cat  28  ARG28       0.5346
     10  NH1       22.1160   31.9030   20.5960 N.pl3  28  ARG28       0.1354
     11  NH2       22.0150   29.7030   20.2020 N.pl3  28  ARG28       0.1354
     12  N         24.3580   19.9230   23.0980 N.3    43  HIS43      -0.1241
     13  CA        23.6240   21.1650   23.1220 C.3    43  HIS43       0.1621
     14  C         22.3950   21.0440   22.2260 C.2    43  HIS43       0.2264
     15  O         22.5680   20.6980   21.0540 O.2    43  HIS43      -0.2867
     16  CB        24.5110   22.2900   22.6070 C.3    43  HIS43       0.0745
     17  CG        23.9240   23.5900   22.2260 C.ar   43  HIS43       0.0817
     18  ND1       23.5830   24.5650   23.1510 N.ar   43  HIS43      -0.2268
     19  CD2       23.6510   24.1230   20.9990 C.ar   43  HIS43       0.1154
     20  CE1       23.1400   25.6330   22.5010 C.ar   43  HIS43       0.1986
     21  NE2       23.1510   25.3890   21.2060 N.ar   43  HIS43      -0.2212
     22  N         19.3500   23.3660   20.9340 N.3    45  ASP45      -0.1239
     23  CA        18.8550   24.7340   20.9200 C.3    45  ASP45       0.1674
     24  C         17.4610   24.7410   20.3010 C.2    45  ASP45       0.2266
     25  O         17.2460   24.1140   19.2620 O.2    45  ASP45      -0.2867
     26  CB        19.8370   25.6300   20.1320 C.3    45  ASP45       0.1410
     27  CG        19.6550   27.1000   20.3870 C.2    45  ASP45       0.3668
     28  OD1       19.0690   27.4700   21.4410 O.co2  45  ASP45      -0.2456
     29  OD2       20.0550   27.9090   19.5200 O.co2  45  ASP45      -0.2456
     30  N         14.9620   27.0480   18.5900 N.3    47  ARG47      -0.1245
     31  CA        15.0000   28.3520   17.9540 C.3    47  ARG47       0.1563
     32  C         13.6200   28.7830   17.4500 C.2    47  ARG47       0.2260
     33  O         13.1230   28.1850   16.5060 O.2    47  ARG47      -0.2867
     34  CB        16.0250   28.3150   16.8050 C.3    47  ARG47       0.0307
     35  CG        17.4380   28.0550   17.3450 C.3    47  ARG47       0.0489
     36  CD        18.4550   27.9640   16.1930 C.3    47  ARG47       0.2205
     37  NE        19.8010   27.7690   16.7750 N.pl3  47  ARG47      -0.0865
     38  CZ        20.9410   27.8240   16.1070 C.cat  47  ARG47       0.5346
     39  NH1       20.8580   28.0710   14.7910 N.pl3  47  ARG47       0.1354
     40  NH2       22.1100   27.6460   16.7050 N.pl3  47  ARG47       0.1354
     41  N         15.7940   32.9500   15.1990 N.3    50  TYR50      -0.1241
     42  CA        17.2350   33.1630   15.3480 C.3    50  TYR50       0.1605
     43  C         17.8820   33.1850   13.9610 C.2    50  TYR50       0.2264
     44  O         18.0160   32.1510   13.3040 O.2    50  TYR50      -0.2867
     45  CB        17.8700   32.0750   16.2110 C.3    50  TYR50       0.0534
     46  CG        19.3640   32.1980   16.4400 C.ar   50  TYR50      -0.0201
     47  CD1       19.8710   33.2700   17.1430 C.ar   50  TYR50      -0.0009
     48  CD2       20.2500   31.2660   15.9170 C.ar   50  TYR50      -0.0009
     49  CE1       21.2300   33.4190   17.3700 C.ar   50  TYR50       0.0417
     50  CE2       21.6150   31.4040   16.1190 C.ar   50  TYR50       0.0417
     51  CZ        22.0880   32.4720   16.8550 C.ar   50  TYR50       0.1957
     52  OH        23.4490   32.6200   17.0470 O.3    50  TYR50      -0.2866
     53  N         16.7350   30.8050   11.1560 N.3    53  ASP53      -0.1239
     54  CA        16.0800   29.6680   11.7760 C.3    53  ASP53       0.1674
     55  C         14.8030   30.0830   12.4980 C.2    53  ASP53       0.2266
     56  O         14.8320   30.8730   13.4430 O.2    53  ASP53      -0.2867
     57  CB        17.0210   29.0250   12.8070 C.3    53  ASP53       0.1410
     58  CG        18.2150   28.3780   12.1400 C.2    53  ASP53       0.3668
     59  OD1       18.0190   27.8080   11.0470 O.co2  53  ASP53      -0.2456
     60  OD2       19.3390   28.3990   12.6790 O.co2  53  ASP53      -0.2456
     61  N         18.3030   22.8280   16.8060 N.3    58  VAL58      -0.1245
     62  CA        19.6810   22.7340   16.3060 C.3    58  VAL58       0.1561
     63  C         20.5350   22.0730   17.3940 C.2    58  VAL58       0.2260
     64  O         20.5230   22.5790   18.5300 O.2    58  VAL58      -0.2867
     65  CB        20.2550   24.1060   15.9540 C.3    58  VAL58       0.0252
     66  CG1       21.6870   23.9640   15.4680 C.3    58  VAL58       0.0019
     67  CG2       19.4140   24.7550   14.8440 C.3    58  VAL58       0.0019
     68  N         24.3160   20.3130   18.7010 N.3    60  ASN60      -0.1240
     69  CA        25.7660   20.3670   18.3850 C.3    60  ASN60       0.1653
     70  C         26.5490   20.0680   19.6590 C.2    60  ASN60       0.2266
     71  O         25.9460   19.8620   20.7020 O.2    60  ASN60      -0.2867
     72  CB        26.1320   21.7400   17.8200 C.3    60  ASN60       0.1155
     73  CG        27.3790   21.7210   16.9410 C.2    60  ASN60       0.2627
     74  OD1       28.0760   20.7050   16.9330 O.2    60  ASN60      -0.2716
     75  ND2       27.6470   22.7970   16.2000 N.am   60  ASN60      -0.0877
     76  N         32.3230   25.2360   18.2300 N.3    68  TRP68      -0.1241
     77  CA        31.2070   24.3970   17.8330 C.3    68  TRP68       0.1605
     78  C         31.6340   23.4690   16.7050 C.2    68  TRP68       0.2264
     79  O         32.4240   23.8540   15.8140 O.2    68  TRP68      -0.2867
     80  CB        30.0150   25.2640   17.4220 C.3    68  TRP68       0.0550
     81  CG        29.4570   26.0060   18.6020 C.ar   68  TRP68       0.0003
     82  CD1       29.6440   27.3100   18.9260 C.ar   68  TRP68       0.0946
     83  CD2       28.6290   25.4380   19.6380 C.ar   68  TRP68       0.0152
     84  NE1       28.9780   27.6190   20.0930 N.ar   68  TRP68      -0.2442
     85  CE2       28.3590   26.4810   20.5450 C.ar   68  TRP68       0.0810
     86  CE3       28.0860   24.1860   19.8840 C.ar   68  TRP68       0.0012
     87  CZ2       27.5540   26.3010   21.6770 C.ar   68  TRP68       0.0191
     88  CZ3       27.3070   23.9890   21.0150 C.ar   68  TRP68       0.0001
     89  CH2       27.0520   25.0520   21.8870 C.ar   68  TRP68       0.0015
     90  N         26.8900   20.9300   13.1810 N.3    71  GLU71      -0.1245
     91  CA        25.4860   20.9810   13.5890 C.3    71  GLU71       0.1567
     92  C         24.6280   19.8940   12.9490 C.2    71  GLU71       0.2260
     93  O         24.7950   19.5370   11.7890 O.2    71  GLU71      -0.2867
     94  CB        24.8200   22.2860   13.1450 C.3    71  GLU71       0.0388
     95  CG        25.2760   23.5070   13.8780 C.3    71  GLU71       0.1160
     96  CD        24.5200   24.7480   13.4560 C.2    71  GLU71       0.3649
     97  OE1       23.7340   24.7570   12.4740 O.co2  71  GLU71      -0.2457
     98  OE2       24.7800   25.7370   14.1380 O.co2  71  GLU71      -0.2457
     99  N         20.2900   19.2570   12.5610 N.3    73  ARG73      -0.1245
    100  CA        19.0280   19.9680   12.7260 C.3    73  ARG73       0.1563
    101  C         17.8380   19.0250   12.7220 C.2    73  ARG73       0.2260
    102  O         17.8840   17.9260   12.1600 O.2    73  ARG73      -0.2867
    103  CB        18.8950   21.0130   11.6040 C.3    73  ARG73       0.0307
    104  CG        19.9060   22.1190   11.8280 C.3    73  ARG73       0.0489
    105  CD        19.9490   23.1920   10.7650 C.3    73  ARG73       0.2205
    106  NE        20.8880   24.2370   11.2610 N.pl3  73  ARG73      -0.0865
    107  CZ        20.4720   25.5000   11.3120 C.cat  73  ARG73       0.5346
    108  NH1       19.2360   25.7230   10.8860 N.pl3  73  ARG73       0.1354
    109  NH2       21.2820   26.4460   11.7600 N.pl3  73  ARG73       0.1354
@<TRIPOS>BOND
     1   105   106    1
     2   105   104    1
     3   108   107    1
     4    59    58   ar
     5    53    54    1
     6   106   107    2
     7   107   109    1
     8   103   104    1
     9   103   100    1
    10    54    55    1
    11    54    57    1
    12    93    92    2
    13    58    60   ar
    14    58    57    1
    15   102   101    2
    16    97    96   ar
    17    55    56    2
    18    99   100    1
    19   101   100    1
    20    92    91    1
    21    94    91    1
    22    94    95    1
    23    90    91    1
    24    44    43    2
    25    96    95    1
    26    96    98   ar
    27    43    42    1
    28    39    38    1
    29    67    65    1
    30    41    42    1
    31    42    45    1
    32    66    65    1
    33    79    78    2
    34    48    50   ar
    35    48    46   ar
    36    65    62    1
    37    38    40    1
    38    38    37    2
    39    50    51   ar
    40    36    37    1
    41    36    35    1
    42    75    73   am
    43    45    46    1
    44    62    61    1
    45    62    63    1
    46    46    47   ar
    47    33    32    2
    48    78    77    1
    49    34    35    1
    50    34    31    1
    51    51    52    1
    52    51    49   ar
    53    74    73    2
    54    73    72    1
    55    47    49   ar
    56    63    64    2
    57    80    77    1
    58    80    81    1
    59    32    31    1
    60    72    69    1
    61    77    76    1
    62    31    30    1
    63    69    68    1
    64    69    70    1
    65    81    82   ar
    66    81    83   ar
    67    82    84   ar
    68    25    24    2
    69    29    27   ar
    70    83    86   ar
    71    83    85   ar
    72    70    71    2
    73    86    88   ar
    74     8     7    1
    75     8     9    2
    76     7     6    1
    77    84    85   ar
    78    26    27    1
    79    26    23    1
    80    11     9    1
    81     9    10    1
    82    24    23    1
    83    27    28   ar
    84    85    87   ar
    85     5     6    1
    86     5     2    1
    87    23    22    1
    88    19    21   ar
    89    19    17   ar
    90    88    89   ar
    91    15    14    2
    92    21    20   ar
    93     1     2    1
    94     2     3    1
    95    87    89   ar
    96    14    13    1
    97    17    16    1
    98    17    18   ar
    99    20    18   ar
   100    16    13    1
   101     3     4    2
   102    12    13    1
