@<TRIPOS>MOLECULE
tmp/1wleB00.pdb
 192 181 0 0 0
SMALL
GASTEIGER

@<TRIPOS>ATOM
      1  N         38.0180   26.3670   73.7670 N.3   236  MET236     -0.1245
      2  CA        38.6200   27.3970   74.6040 C.3   236  MET236      0.1570
      3  C         38.0690   28.7480   74.1420 C.2   236  MET236      0.2261
      4  O         37.3020   28.8050   73.1790 O.2   236  MET236     -0.2867
      5  CB        40.1440   27.3390   74.4580 C.3   236  MET236      0.0387
      6  CG        40.7090   25.9600   74.7970 C.3   236  MET236      0.0595
      7  SD        42.4200   25.6880   74.2660 S.3   236  MET236     -0.1393
      8  CE        42.8750   24.3040   75.3020 C.3   236  MET236      0.0692
      9  N         48.5050   24.9500   76.4220 N.3   261  THR261     -0.1218
     10  CA        48.7010   23.5020   76.4440 C.3   261  THR261      0.1862
     11  C         48.9630   22.9880   75.0280 C.2   261  THR261      0.2287
     12  O         48.4210   23.5270   74.0610 O.2   261  THR261     -0.2866
     13  CB        47.4530   22.7810   77.0170 C.3   261  THR261      0.1770
     14  OG1       47.5480   21.3710   76.7650 O.3   261  THR261     -0.2211
     15  CG2       46.1870   23.3130   76.3690 C.3   261  THR261      0.0375
     16  N         47.7770   20.6580   73.7110 N.3   263  GLU263     -0.1245
     17  CA        46.5130   20.1500   73.1780 C.3   263  GLU263      0.1567
     18  C         46.0610   21.0030   71.9870 C.2   263  GLU263      0.2260
     19  O         45.5010   20.4840   71.0150 O.2   263  GLU263     -0.2867
     20  CB        45.4320   20.1740   74.2690 C.3   263  GLU263      0.0388
     21  CG        44.0120   19.9300   73.7540 C.3   263  GLU263      0.1160
     22  CD        42.9520   20.3180   74.7690 C.2   263  GLU263      0.3649
     23  OE1       41.7620   20.3900   74.3940 O.co2 263  GLU263     -0.2457
     24  OE2       43.3050   20.5490   75.9450 O.co2 263  GLU263     -0.2457
     25  N         49.8930   31.0540   80.2340 N.3   292  ARG292     -0.1245
     26  CA        48.5400   31.3460   80.6870 C.3   292  ARG292      0.1563
     27  C         48.5170   32.6710   81.4280 C.2   292  ARG292      0.2260
     28  O         49.2980   32.8860   82.3530 O.2   292  ARG292     -0.2867
     29  CB        48.0230   30.2240   81.5820 C.3   292  ARG292      0.0307
     30  CG        48.0400   28.8780   80.8840 C.3   292  ARG292      0.0489
     31  CD        47.1510   27.8620   81.5620 C.3   292  ARG292      0.2205
     32  NE        47.3200   26.5450   80.9580 N.pl3 292  ARG292     -0.0865
     33  CZ        46.5320   25.5050   81.2040 C.cat 292  ARG292      0.5346
     34  NH1       46.7670   24.3370   80.6100 N.pl3 292  ARG292      0.1354
     35  NH2       45.5040   25.6350   82.0370 N.pl3 292  ARG292      0.1354
     36  N         46.2160   33.8160   83.3770 N.3   294  GLU294     -0.1245
     37  CA        45.7040   33.6130   84.7310 C.3   294  GLU294      0.1567
     38  C         45.0840   34.8540   85.3590 C.2   294  GLU294      0.2260
     39  O         45.4290   35.2420   86.4780 O.2   294  GLU294     -0.2867
     40  CB        46.8160   33.0740   85.6380 C.3   294  GLU294      0.0388
     41  CG        47.3340   31.7040   85.2150 C.3   294  GLU294      0.1160
     42  CD        46.2580   30.6310   85.2490 C.2   294  GLU294      0.3649
     43  OE1       46.4550   29.5700   84.6170 O.co2 294  GLU294     -0.2457
     44  OE2       45.2150   30.8420   85.9110 O.co2 294  GLU294     -0.2457
     45  N         54.9430   28.4690   92.8730 N.3   304  LEU304     -0.1231
     46  CA        54.7020   27.9740   91.5230 C.3   304  LEU304      0.1693
     47  C         53.3200   27.3930   91.2500 C.2   304  LEU304      0.2592
     48  O         53.1150   26.7740   90.2090 O.2   304  LEU304     -0.2718
     49  CB        55.7460   26.9080   91.1810 C.3   304  LEU304      0.0284
     50  CG        57.2240   27.2810   91.3310 C.3   304  LEU304      0.0019
     51  CD1       58.0890   26.1040   90.8910 C.3   304  LEU304      0.0001
     52  CD2       57.5330   28.5080   90.4870 C.3   304  LEU304      0.0001
     53  N         52.3630   27.6000   92.1490 N.am  305  TYR305     -0.1962
     54  CA        51.0460   27.0100   91.9330 C.3   305  TYR305      0.1771
     55  C         50.2600   27.5210   90.7260 C.2   305  TYR305      0.2619
     56  O         49.6160   26.7340   90.0300 O.2   305  TYR305     -0.2715
     57  CB        50.1960   27.1310   93.2010 C.3   305  TYR305      0.0574
     58  CG        49.0380   26.1620   93.2140 C.ar  305  TYR305     -0.0198
     59  CD1       47.7820   26.5300   92.7370 C.ar  305  TYR305     -0.0009
     60  CD2       49.2090   24.8590   93.6790 C.ar  305  TYR305     -0.0009
     61  CE1       46.7250   25.6220   92.7210 C.ar  305  TYR305      0.0417
     62  CE2       48.1620   23.9450   93.6690 C.ar  305  TYR305      0.0417
     63  CZ        46.9230   24.3300   93.1910 C.ar  305  TYR305      0.1957
     64  OH        45.8850   23.4190   93.1890 O.3   305  TYR305     -0.2866
     65  N         50.3010   28.8240   90.4680 N.am  306  ARG306     -0.1963
     66  CA        49.5800   29.3750   89.3260 C.3   306  ARG306      0.1729
     67  C         50.4710   30.3970   88.6240 C.2   306  ARG306      0.2616
     68  O         50.3170   31.6070   88.7980 O.2   306  ARG306     -0.2715
     69  CB        48.2590   30.0130   89.7890 C.3   306  ARG306      0.0348
     70  CG        47.3070   30.3490   88.6530 C.3   306  ARG306      0.0492
     71  CD        45.8820   30.6380   89.1420 C.3   306  ARG306      0.2205
     72  NE        45.1710   29.4400   89.5940 N.pl3 306  ARG306     -0.0865
     73  CZ        44.9350   29.1400   90.8680 C.cat 306  ARG306      0.5346
     74  NH1       44.2800   28.0290   91.1800 N.pl3 306  ARG306      0.1354
     75  NH2       45.3470   29.9520   91.8320 N.pl3 306  ARG306      0.1354
     76  N         51.4090   29.8910   87.8290 N.am  307  VAL307     -0.1977
     77  CA        52.3540   30.7370   87.1130 C.3   307  VAL307      0.1596
     78  C         51.9200   31.0310   85.6770 C.2   307  VAL307      0.2287
     79  O         50.9840   30.4170   85.1630 O.2   307  VAL307     -0.2864
     80  CB        53.7680   30.0960   87.1190 C.3   307  VAL307      0.0276
     81  CG1       54.3780   30.1900   88.5270 C.3   307  VAL307      0.0022
     82  CG2       53.6790   28.6260   86.6910 C.3   307  VAL307      0.0022
     83  N         55.1390   27.6500   81.9010 N.3   310  PHE310     -0.1241
     84  CA        55.5710   26.3700   82.4550 C.3   310  PHE310      0.1605
     85  C         55.6330   25.2940   81.3890 C.2   310  PHE310      0.2264
     86  O         55.0240   25.4180   80.3290 O.2   310  PHE310     -0.2867
     87  CB        54.6430   25.9140   83.5920 C.3   310  PHE310      0.0534
     88  CG        53.2140   25.6720   83.1690 C.ar  310  PHE310     -0.0203
     89  CD1       52.2990   26.7210   83.1160 C.ar  310  PHE310     -0.0042
     90  CD2       52.7860   24.3890   82.8250 C.ar  310  PHE310     -0.0042
     91  CE1       50.9730   26.4990   82.7270 C.ar  310  PHE310     -0.0003
     92  CE2       51.4660   24.1540   82.4360 C.ar  310  PHE310     -0.0003
     93  CZ        50.5560   25.2150   82.3880 C.ar  310  PHE310     -0.0000
     94  N         54.9310   21.4360   80.0930 N.3   312  LYS312     -0.1245
     95  CA        53.9990   20.3360   80.3100 C.3   312  LYS312      0.1561
     96  C         54.1080   19.2990   79.1990 C.2   312  LYS312      0.2260
     97  O         54.2140   19.6480   78.0180 O.2   312  LYS312     -0.2867
     98  CB        52.5520   20.8630   80.3800 C.3   312  LYS312      0.0271
     99  CG        51.4850   19.7670   80.4820 C.3   312  LYS312      0.0035
    100  CD        50.0820   20.3410   80.7250 C.3   312  LYS312      0.0206
    101  CE        49.6000   21.2470   79.5850 C.3   312  LYS312      0.1093
    102  NZ        49.5180   20.5630   78.2610 N.3   312  LYS312     -0.1314
    103  N         52.1620   16.5230   77.3140 N.3   314  GLU314     -0.1245
    104  CA        50.7570   16.2330   77.0510 C.3   314  GLU314      0.1567
    105  C         50.5080   14.9240   76.3090 C.2   314  GLU314      0.2260
    106  O         51.2870   14.5450   75.4350 O.2   314  GLU314     -0.2867
    107  CB        50.1880   17.3870   76.2160 C.3   314  GLU314      0.0388
    108  CG        48.7250   17.2570   75.8240 C.3   314  GLU314      0.1160
    109  CD        47.7950   17.6020   76.9660 C.2   314  GLU314      0.3649
    110  OE1       48.2960   17.8830   78.0770 O.co2 314  GLU314     -0.2457
    111  OE2       46.5670   17.5980   76.7430 O.co2 314  GLU314     -0.2457
    112  N         35.5150   13.9160   82.7260 N.3   365  LYS365     -0.1245
    113  CA        36.8090   14.4900   83.1060 C.3   365  LYS365      0.1561
    114  C         37.2900   13.9750   84.4550 C.2   365  LYS365      0.2260
    115  O         36.5790   14.0680   85.4610 O.2   365  LYS365     -0.2867
    116  CB        36.6980   16.0240   83.1340 C.3   365  LYS365      0.0271
    117  CG        38.0020   16.7880   83.4010 C.3   365  LYS365      0.0035
    118  CD        37.7790   18.2840   83.1550 C.3   365  LYS365      0.0206
    119  CE        39.0660   19.1000   83.2120 C.3   365  LYS365      0.1093
    120  NZ        39.5970   19.2460   84.5970 N.3   365  LYS365     -0.1314
    121  N         45.5390   20.1150   92.3380 N.3   380  GLU380     -0.1231
    122  CA        45.4320   19.4600   91.0360 C.3   380  GLU380      0.1699
    123  C         46.7590   19.4390   90.2810 C.2   380  GLU380      0.2592
    124  O         47.3560   20.4890   90.0520 O.2   380  GLU380     -0.2718
    125  CB        44.4010   20.1850   90.1730 C.3   380  GLU380      0.0402
    126  CG        44.1720   19.5500   88.8040 C.3   380  GLU380      0.1161
    127  CD        43.3920   20.4580   87.8770 C.2   380  GLU380      0.3649
    128  OE1       42.4290   21.0880   88.3560 O.co2 380  GLU380     -0.2457
    129  OE2       43.7320   20.5380   86.6740 O.co2 380  GLU380     -0.2457
    130  N         47.2140   18.2510   89.8930 N.am  381  VAL381     -0.1966
    131  CA        48.4550   18.1410   89.1230 C.3   381  VAL381      0.1727
    132  C         48.1920   17.6460   87.7010 C.2   381  VAL381      0.2617
    133  O         49.0240   17.8400   86.8110 O.2   381  VAL381     -0.2715
    134  CB        49.5010   17.2130   89.8050 C.3   381  VAL381      0.0290
    135  CG1       50.0820   17.9110   91.0450 C.3   381  VAL381      0.0023
    136  CG2       48.8630   15.8780   90.1850 C.3   381  VAL381      0.0023
    137  N         47.0370   17.0180   87.4790 N.am  382  THR382     -0.1937
    138  CA        46.6850   16.5230   86.1440 C.3   382  THR382      0.2028
    139  C         45.1850   16.5570   85.8970 C.2   382  THR382      0.2642
    140  O         44.3880   16.5640   86.8360 O.2   382  THR382     -0.2714
    141  CB        47.0800   15.0410   85.9290 C.3   382  THR382      0.1808
    142  OG1       46.2590   14.2050   86.7630 O.3   382  THR382     -0.2208
    143  CG2       48.5450   14.8090   86.2500 C.3   382  THR382      0.0379
    144  N         44.8190   16.5830   84.6210 N.am  383  SER383     -0.1949
    145  CA        43.4220   16.5250   84.2070 C.3   383  SER383      0.1924
    146  C         43.4100   15.5980   82.9920 C.2   383  SER383      0.2314
    147  O         44.4240   15.4450   82.3030 O.2   383  SER383     -0.2863
    148  CB        42.8720   17.9120   83.8310 C.3   383  SER383      0.2116
    149  OG        43.3950   18.3790   82.6000 O.3   383  SER383     -0.2180
    150  N         42.3480   14.0210   75.7720 N.3   413  ASN413     -0.1225
    151  CA        43.6090   14.6560   76.1460 C.3   413  ASN413      0.1785
    152  C         43.8640   14.4380   77.6310 C.2   413  ASN413      0.2597
    153  O         42.9300   14.2600   78.4120 O.2   413  ASN413     -0.2718
    154  CB        43.6010   16.1550   75.7910 C.3   413  ASN413      0.1169
    155  CG        42.6400   16.9670   76.6460 C.2   413  ASN413      0.2627
    156  OD1       42.9110   17.2450   77.8150 O.2   413  ASN413     -0.2716
    157  ND2       41.5090   17.3530   76.0620 N.am  413  ASN413     -0.0877
    158  N         45.1350   14.4160   78.0160 N.am  414  ALA414     -0.1966
    159  CA        45.4720   14.2100   79.4140 C.3   414  ALA414      0.1728
    160  C         46.8750   14.6870   79.7290 C.2   414  ALA414      0.2616
    161  O         47.7850   14.5730   78.9140 O.2   414  ALA414     -0.2715
    162  CB        45.3320   12.7320   79.7760 C.3   414  ALA414      0.0334
    163  N         47.0410   15.2170   80.9300 N.am  415  THR415     -0.1951
    164  CA        48.3360   15.7040   81.3720 C.3   415  THR415      0.1897
    165  C         49.2920   14.5370   81.6260 C.2   415  THR415      0.2313
    166  O         48.9590   13.6110   82.3650 O.2   415  THR415     -0.2863
    167  CB        48.2040   16.4920   82.6920 C.3   415  THR415      0.1794
    168  OG1       47.2040   17.5110   82.5560 O.3   415  THR415     -0.2208
    169  CG2       49.5360   17.1340   83.0530 C.3   415  THR415      0.0378
    170  N         52.8840   18.1150   84.4120 N.3   418  ALA418     -0.1245
    171  CA        52.9280   19.5770   84.4140 C.3   418  ALA418      0.1562
    172  C         53.9510   19.8600   85.5060 C.2   418  ALA418      0.2260
    173  O         53.7290   19.5520   86.6750 O.2   418  ALA418     -0.2867
    174  CB        51.5610   20.1560   84.7740 C.3   418  ALA418      0.0290
    175  N         55.4430   22.6900   87.2930 N.3   420  PRO420     -0.2102
    176  CA        55.2640   23.4980   88.5070 C.3   420  PRO420      0.1504
    177  C         54.7240   22.8200   89.7580 C.2   420  PRO420      0.2575
    178  O         55.3880   22.7960   90.7990 O.2   420  PRO420     -0.2718
    179  CB        54.3550   24.6300   88.0370 C.3   420  PRO420      0.0282
    180  CG        54.7820   24.8120   86.6110 C.3   420  PRO420      0.0208
    181  CD        54.8950   23.3840   86.1140 C.3   420  PRO420      0.0893
    182  N         53.5160   22.2770   89.6670 N.am  421  ARG421     -0.1980
    183  CA        52.9130   21.6540   90.8340 C.3   421  ARG421      0.1597
    184  C         53.5460   20.3330   91.2310 C.2   421  ARG421      0.2287
    185  O         53.4210   19.9070   92.3790 O.2   421  ARG421     -0.2864
    186  CB        51.4060   21.5300   90.6180 C.3   421  ARG421      0.0334
    187  CG        50.7710   22.9070   90.4670 C.3   421  ARG421      0.0492
    188  CD        49.2770   22.8270   90.2610 C.3   421  ARG421      0.2205
    189  NE        48.7190   24.1330   89.9160 N.pl3 421  ARG421     -0.0865
    190  CZ        47.4580   24.3250   89.5430 C.cat 421  ARG421      0.5346
    191  NH1       47.0300   25.5450   89.2400 N.pl3 421  ARG421      0.1354
    192  NH2       46.6220   23.2960   89.4750 N.pl3 421  ARG421      0.1354
@<TRIPOS>BOND
     1    19    18    2
     2    18    17    1
     3    17    16    1
     4    17    20    1
     5     4     3    2
     6    21    20    1
     7    21    22    1
     8     1     2    1
     9    12    11    2
    10     3     2    1
    11     7     6    1
    12     7     8    1
    13    23    22   ar
    14     5     2    1
    15     5     6    1
    16    22    24   ar
    17    11    10    1
    18   106   105    2
    19   150   151    1
    20   154   151    1
    21   154   155    1
    22   108   107    1
    23   108   109    1
    24   157   155   am
    25   151   152    1
    26   107   104    1
    27   105   104    1
    28    15    13    1
    29     9    10    1
    30    10    13    1
    31   155   156    2
    32   111   109   ar
    33    14    13    1
    34   109   110   ar
    35   104   103    1
    36   152   158   am
    37   152   153    2
    38   158   159    1
    39    97    96    2
    40   102   101    1
    41   161   160    2
    42    96    95    1
    43   159   160    1
    44   159   162    1
    45   101   100    1
    46   160   163   am
    47    94    95    1
    48    25    26    1
    49    95    98    1
    50    86    85    2
    51    98    99    1
    52    99   100    1
    53    34    33    1
    54    26    27    1
    55    26    29    1
    56    30    31    1
    57    30    29    1
    58   163   164    1
    59    32    33    2
    60    32    31    1
    61    33    35    1
    62   164   165    1
    63   164   167    1
    64    85    84    1
    65    27    28    2
    66   165   166    2
    67    83    84    1
    68   147   146    2
    69    93    92   ar
    70    93    91   ar
    71    92    90   ar
    72    84    87    1
    73   168   167    1
    74   149   148    1
    75   167   169    1
    76   112   113    1
    77    91    89   ar
    78    90    88   ar
    79   146   145    1
    80   113   116    1
    81   113   114    1
    82    89    88   ar
    83   116   117    1
    84   118   119    1
    85   118   117    1
    86    88    87    1
    87   119   120    1
    88    36    37    1
    89   148   145    1
    90   145   144    1
    91   170   171    1
    92   171   174    1
    93   171   172    1
    94   114   115    2
    95    43    42   ar
    96   144   139   am
    97    37    38    1
    98    37    40    1
    99    79    78    2
   100    41    42    1
   101    41    40    1
   102    42    44   ar
   103    38    39    2
   104   172   173    2
   105    78    77    1
   106   139   138    1
   107   139   140    2
   108   141   138    1
   109   141   143    1
   110   141   142    1
   111   181   180    1
   112   181   175    1
   113   138   137    1
   114   180   179    1
   115   129   127   ar
   116    82    80    1
   117   133   132    2
   118    77    80    1
   119    77    76    1
   120    80    81    1
   121   175   176    1
   122   137   132   am
   123   132   131    1
   124    76    67   am
   125   127   128   ar
   126   127   126    1
   127   179   176    1
   128   176   177    1
   129    67    68    2
   130    67    66    1
   131    70    71    1
   132    70    69    1
   133   126   125    1
   134   131   134    1
   135   131   130    1
   136    71    72    1
   137   191   190    1
   138    66    69    1
   139    66    65    1
   140   192   190    1
   141   190   189    2
   142    72    73    2
   143   182   177   am
   144   182   183    1
   145   177   178    2
   146   134   136    1
   147   134   135    1
   148   130   123   am
   149   189   188    1
   150    56    55    2
   151   124   123    2
   152   125   122    1
   153    48    47    2
   154   188   187    1
   155   123   122    1
   156   187   186    1
   157    65    55   am
   158    52    50    1
   159   186   183    1
   160    55    54    1
   161   183   184    1
   162    73    74    1
   163    73    75    1
   164    51    50    1
   165   122   121    1
   166    49    50    1
   167    49    46    1
   168   184   185    2
   169    47    46    1
   170    47    53   am
   171    46    45    1
   172    54    53    1
   173    54    57    1
   174    61    59   ar
   175    61    63   ar
   176    59    58   ar
   177    64    63    1
   178    63    62   ar
   179    57    58    1
   180    58    60   ar
   181    62    60   ar
