@<TRIPOS>MOLECULE
tmp/1wljA00.pdb
 104 96 0 0 0
SMALL
GASTEIGER

@<TRIPOS>ATOM
      1  N          3.6360   34.5280   25.3470 N.3     6  ASP6       -0.1225
      2  CA         4.2500   35.7670   25.7900 C.3     6  ASP6        0.1805
      3  C          3.3220   36.3760   26.8280 C.2     6  ASP6        0.2598
      4  O          2.0990   36.2770   26.7200 O.2     6  ASP6       -0.2718
      5  CB         4.4890   36.7660   24.6630 C.3     6  ASP6        0.1424
      6  CG         5.2350   37.9960   25.1550 C.2     6  ASP6        0.3668
      7  OD1        6.2800   37.8220   25.8250 O.co2   6  ASP6       -0.2456
      8  OD2        4.7810   39.1220   24.8910 O.co2   6  ASP6       -0.2456
      9  N          3.9000   36.9660   27.8430 N.am    7  CYS7       -0.1956
     10  CA         3.1070   37.5970   28.8940 C.3     7  CYS7        0.1843
     11  C          3.5400   39.0380   29.0690 C.2     7  CYS7        0.2625
     12  O          4.6630   39.4050   28.7290 O.2     7  CYS7       -0.2714
     13  CB         3.3290   36.8960   30.2420 C.3     7  CYS7        0.0997
     14  SG         3.1200   35.0720   30.2010 S.3     7  CYS7       -0.0797
     15  N          2.6390   39.8350   29.5880 N.am    8  GLU8       -0.1963
     16  CA         2.9350   41.2340   29.9000 C.3     8  GLU8        0.1733
     17  C          2.8050   41.3120   31.4080 C.2     8  GLU8        0.2616
     18  O          1.9660   40.6220   31.9980 O.2     8  GLU8       -0.2715
     19  CB         1.9590   42.1860   29.2020 C.3     8  GLU8        0.0429
     20  CG         2.0680   42.1790   27.6740 C.3     8  GLU8        0.1163
     21  CD         3.4970   42.2800   27.1650 C.2     8  GLU8        0.3649
     22  OE1        4.3440   42.9960   27.7930 O.co2   8  GLU8       -0.2457
     23  OE2        3.8330   41.6480   26.1110 O.co2   8  GLU8       -0.2457
     24  N          3.6220   42.1330   32.0350 N.am    9  MET9       -0.1977
     25  CA         3.5950   42.2290   33.5010 C.3     9  MET9        0.1605
     26  C          3.4970   43.6750   33.9990 C.2     9  MET9        0.2287
     27  O          3.8200   44.6280   33.2900 O.2     9  MET9       -0.2864
     28  CB         4.8700   41.6040   34.0710 C.3     9  MET9        0.0413
     29  CG         4.9630   40.0940   33.8270 C.3     9  MET9        0.0598
     30  SD         5.5260   39.6440   32.1960 S.3     9  MET9       -0.1393
     31  CE         6.7900   38.4190   32.4320 C.3     9  MET9        0.0692
     32  N          7.7530   42.2410   39.1750 N.3    18  SER18      -0.1217
     33  CA         6.9530   41.8380   38.0220 C.3    18  SER18       0.1889
     34  C          5.8380   40.8710   38.4020 C.2    18  SER18       0.2288
     35  O          6.0630   39.8940   39.1190 O.2    18  SER18      -0.2866
     36  CB         7.8440   41.1950   36.9570 C.3    18  SER18       0.2089
     37  OG         8.7530   42.1400   36.4210 O.3    18  SER18      -0.2183
     38  N          2.9190   50.0430   34.4400 N.3    48  ARG48      -0.1245
     39  CA         3.8830   49.9750   33.3340 C.3    48  ARG48       0.1563
     40  C          3.1370   50.0500   32.0050 C.2    48  ARG48       0.2260
     41  O          3.5700   49.4710   31.0090 O.2    48  ARG48      -0.2867
     42  CB         4.6620   48.6540   33.3740 C.3    48  ARG48       0.0307
     43  CG         5.4250   48.3740   34.6560 C.3    48  ARG48       0.0489
     44  CD         6.1490   47.0270   34.5640 C.3    48  ARG48       0.2205
     45  NE         6.8530   46.6830   35.7970 N.pl3  48  ARG48      -0.0865
     46  CZ         7.4480   45.5140   36.0240 C.cat  48  ARG48       0.5346
     47  NH1        7.4300   44.5590   35.1000 N.pl3  48  ARG48       0.1354
     48  NH2        8.0570   45.2950   37.1810 N.pl3  48  ARG48       0.1354
     49  N          4.5120   50.1530   28.3340 N.3    51  VAL51      -0.1231
     50  CA         5.1310   48.9430   27.8050 C.3    51  VAL51       0.1692
     51  C          4.2160   47.7200   27.8860 C.2    51  VAL51       0.2592
     52  O          4.0930   46.9620   26.9270 O.2    51  VAL51      -0.2718
     53  CB         6.4400   48.6190   28.5550 C.3    51  VAL51       0.0266
     54  CG1        6.9500   47.2430   28.1510 C.3    51  VAL51       0.0020
     55  CG2        7.4860   49.6790   28.2480 C.3    51  VAL51       0.0020
     56  N          3.5650   47.5410   29.0300 N.am   52  SER52      -0.1952
     57  CA         2.6880   46.3930   29.2380 C.3    52  SER52       0.1924
     58  C          1.3280   46.5260   28.5690 C.2    52  SER52       0.2314
     59  O          0.6580   45.5230   28.3180 O.2    52  SER52      -0.2863
     60  CB         2.4780   46.1680   30.7320 C.3    52  SER52       0.2116
     61  OG         1.6960   47.2150   31.2750 O.3    52  SER52      -0.2180
     62  N          8.7630   34.4670   32.1680 N.3    89  ASP89      -0.1239
     63  CA         7.3350   34.2100   31.9980 C.3    89  ASP89       0.1674
     64  C          6.8900   33.1580   33.0070 C.2    89  ASP89       0.2266
     65  O          5.8440   33.2990   33.6420 O.2    89  ASP89      -0.2867
     66  CB         7.0450   33.7320   30.5750 C.3    89  ASP89       0.1410
     67  CG         7.3330   34.8000   29.5380 C.2    89  ASP89       0.3668
     68  OD1        6.5590   35.7770   29.4490 O.co2  89  ASP89      -0.2456
     69  OD2        8.3420   34.6680   28.8200 O.co2  89  ASP89      -0.2456
     70  N         14.1820   40.5270   21.5070 N.3   120  LEU120     -0.1245
     71  CA        13.2590   39.9840   20.5250 C.3   120  LEU120      0.1561
     72  C         13.0400   40.9850   19.3940 C.2   120  LEU120      0.2260
     73  O         12.8760   40.6060   18.2340 O.2   120  LEU120     -0.2867
     74  CB        11.9270   39.6670   21.1980 C.3   120  LEU120      0.0270
     75  CG        10.8570   39.0830   20.2800 C.3   120  LEU120      0.0019
     76  CD1       11.3690   37.7870   19.6540 C.3   120  LEU120      0.0001
     77  CD2        9.5970   38.8300   21.0900 C.3   120  LEU120      0.0001
     78  N          6.6330   45.8490   18.9140 N.3   133  GLN133     -0.1245
     79  CA         6.6690   46.6260   20.1440 C.3   133  GLN133      0.1566
     80  C          6.8740   48.1210   19.9150 C.2   133  GLN133      0.2260
     81  O          7.6870   48.7500   20.5850 O.2   133  GLN133     -0.2867
     82  CB         7.7730   46.0590   21.0460 C.3   133  GLN133      0.0367
     83  CG         7.5210   44.6010   21.4350 C.3   133  GLN133      0.0905
     84  CD         8.7190   43.9240   22.0780 C.2   133  GLN133      0.2608
     85  OE1        8.5920   42.8460   22.6680 O.2   133  GLN133     -0.2717
     86  NE2        9.8890   44.5430   21.9590 N.am  133  GLN133     -0.0878
     87  N          3.2640   47.1330   24.3730 N.3   139  HIS139     -0.1241
     88  CA         3.5850   45.9040   23.6630 C.3   139  HIS139      0.1621
     89  C          2.3520   45.0210   23.5670 C.2   139  HIS139      0.2264
     90  O          1.4740   45.0660   24.4330 O.2   139  HIS139     -0.2867
     91  CB         4.6830   45.1240   24.3910 C.3   139  HIS139      0.0745
     92  CG         5.9950   45.8390   24.4610 C.ar  139  HIS139      0.0817
     93  ND1        7.1140   45.2790   25.0400 N.ar  139  HIS139     -0.2268
     94  CD2        6.3680   47.0690   24.0340 C.ar  139  HIS139      0.1154
     95  CE1        8.1190   46.1340   24.9670 C.ar  139  HIS139      0.1986
     96  NE2        7.6930   47.2280   24.3620 N.ar  139  HIS139     -0.2212
     97  N          4.1420   39.6740   20.0050 N.3   144  ASP144     -0.1239
     98  CA         5.4000   39.1490   20.5230 C.3   144  ASP144      0.1674
     99  C          5.4390   37.6230   20.4210 C.2   144  ASP144      0.2266
    100  O          6.4640   37.0460   20.0650 O.2   144  ASP144     -0.2867
    101  CB         5.5960   39.5820   21.9790 C.3   144  ASP144      0.1410
    102  CG         5.8120   41.0840   22.1240 C.2   144  ASP144      0.3668
    103  OD1        5.9290   41.7880   21.0950 O.co2 144  ASP144     -0.2456
    104  OD2        5.8730   41.5590   23.2760 O.co2 144  ASP144     -0.2456
@<TRIPOS>BOND
     1    73    72    2
     2    78    79    1
     3    72    71    1
     4    76    75    1
     5    80    79    1
     6    80    81    2
     7    97    98    1
     8   100    99    2
     9    79    82    1
    10    75    77    1
    11    75    74    1
    12    99    98    1
    13    98   101    1
    14    71    74    1
    15    71    70    1
    16    82    83    1
    17   103   102   ar
    18    83    84    1
    19    86    84   am
    20   101   102    1
    21    84    85    2
    22   102   104   ar
    23    89    88    1
    24    89    90    2
    25    88    87    1
    26    88    91    1
    27    94    96   ar
    28    94    92   ar
    29    96    95   ar
    30    91    92    1
    31    92    93   ar
    32     5     6    1
    33     5     2    1
    34     8     6   ar
    35    95    93   ar
    36     6     7   ar
    37     1     2    1
    38     2     3    1
    39    23    21   ar
    40     4     3    2
    41     3     9   am
    42    52    51    2
    43    21    20    1
    44    21    22   ar
    45    20    19    1
    46    50    51    1
    47    50    49    1
    48    50    53    1
    49     9    10    1
    50    51    56   am
    51    54    53    1
    52    55    53    1
    53    59    58    2
    54    58    57    1
    55    12    11    2
    56    69    67   ar
    57    10    11    1
    58    10    13    1
    59    56    57    1
    60    11    15   am
    61    19    16    1
    62    57    60    1
    63    68    67   ar
    64    67    66    1
    65    15    16    1
    66    16    17    1
    67    14    13    1
    68    66    63    1
    69    60    61    1
    70    41    40    2
    71    17    18    2
    72    17    24   am
    73    63    62    1
    74    63    64    1
    75    40    39    1
    76    24    25    1
    77    30    31    1
    78    30    29    1
    79    64    65    2
    80    27    26    2
    81    39    42    1
    82    39    38    1
    83    42    43    1
    84    25    26    1
    85    25    28    1
    86    29    28    1
    87    44    43    1
    88    44    45    1
    89    47    46    1
    90    45    46    2
    91    46    48    1
    92    37    36    1
    93    36    33    1
    94    33    34    1
    95    33    32    1
    96    34    35    2
