@<TRIPOS>MOLECULE
tmp/1wlrA00.pdb
 115 110 0 0 0
SMALL
GASTEIGER

@<TRIPOS>ATOM
      1  N         67.5030   57.2590   56.3280 N.3   229  TYR229     -0.1241
      2  CA        66.3890   56.8190   57.1520 C.3   229  TYR229      0.1605
      3  C         66.9470   56.0590   58.3250 C.2   229  TYR229      0.2264
      4  O         68.1060   55.6720   58.3050 O.2   229  TYR229     -0.2867
      5  CB        65.4610   55.8900   56.3830 C.3   229  TYR229      0.0534
      6  CG        66.1820   54.7400   55.7760 C.ar  229  TYR229     -0.0201
      7  CD1       66.8760   54.8800   54.5520 C.ar  229  TYR229     -0.0009
      8  CD2       66.2340   53.5020   56.4310 C.ar  229  TYR229     -0.0009
      9  CE1       67.5730   53.8080   53.9920 C.ar  229  TYR229      0.0417
     10  CE2       66.9140   52.4130   55.8700 C.ar  229  TYR229      0.0417
     11  CZ        67.5510   52.5650   54.6520 C.ar  229  TYR229      0.1957
     12  OH        68.1960   51.4990   54.1040 O.3   229  TYR229     -0.2866
     13  N         68.0160   49.9540   60.4010 N.3   232  ILE232     -0.1245
     14  CA        67.3390   48.7580   60.8790 C.3   232  ILE232      0.1561
     15  C         68.3790   47.6500   61.0440 C.2   232  ILE232      0.2260
     16  O         69.0900   47.2950   60.0890 O.2   232  ILE232     -0.2867
     17  CB        66.2540   48.3620   59.8460 C.3   232  ILE232      0.0252
     18  CG1       65.1220   49.3990   59.8430 C.3   232  ILE232      0.0019
     19  CG2       65.7100   46.9550   60.0780 C.3   232  ILE232      0.0019
     20  CD1       64.4370   49.5560   58.4840 C.3   232  ILE232      0.0001
     21  N         59.5610   44.7580   59.5990 N.3   242  LEU242     -0.1231
     22  CA        60.0880   45.4050   58.3900 C.3   242  LEU242      0.1693
     23  C         60.9450   46.6200   58.7110 C.2   242  LEU242      0.2592
     24  O         62.0770   46.7300   58.2140 O.2   242  LEU242     -0.2718
     25  CB        58.9500   45.7790   57.4360 C.3   242  LEU242      0.0284
     26  CG        58.0980   44.6040   56.9510 C.3   242  LEU242      0.0019
     27  CD1       57.0960   45.0820   55.9560 C.3   242  LEU242      0.0001
     28  CD2       58.9450   43.4500   56.3710 C.3   242  LEU242      0.0001
     29  N         60.4280   47.5050   59.5640 N.am  243  HIS243     -0.1976
     30  CA        61.1930   48.6740   60.0270 C.3   243  HIS243      0.1656
     31  C         61.5830   48.5380   61.5020 C.2   243  HIS243      0.2291
     32  O         61.3110   49.4510   62.2950 O.2   243  HIS243     -0.2864
     33  CB        60.3840   49.9610   59.8780 C.3   243  HIS243      0.0771
     34  CG        59.9660   50.2600   58.4750 C.ar  243  HIS243      0.0820
     35  ND1       60.5520   51.2560   57.7280 N.ar  243  HIS243     -0.2267
     36  CD2       59.0080   49.7160   57.6910 C.ar  243  HIS243      0.1154
     37  CE1       59.9740   51.3130   56.5420 C.ar  243  HIS243      0.1986
     38  NE2       59.0480   50.3760   56.4860 N.ar  243  HIS243     -0.2212
     39  N         69.1730   46.9260   57.2190 N.3   260  ASP260     -0.1239
     40  CA        68.5600   47.7750   56.2010 C.3   260  ASP260      0.1674
     41  C         68.9870   49.1860   56.5590 C.2   260  ASP260      0.2266
     42  O         68.5800   49.7460   57.5980 O.2   260  ASP260     -0.2867
     43  CB        67.0380   47.6060   56.2130 C.3   260  ASP260      0.1410
     44  CG        66.3280   48.3610   55.0940 C.2   260  ASP260      0.3668
     45  OD1       66.8770   49.3200   54.5270 O.co2 260  ASP260     -0.2456
     46  OD2       65.1720   47.9860   54.7980 O.co2 260  ASP260     -0.2456
     47  N         70.1260   52.9860   49.8180 N.3   271  ASP271     -0.1239
     48  CA        69.3000   52.0680   50.5660 C.3   271  ASP271      0.1674
     49  C         69.6690   50.6110   50.2070 C.2   271  ASP271      0.2266
     50  O         69.2740   50.1010   49.1730 O.2   271  ASP271     -0.2867
     51  CB        67.8180   52.3110   50.3030 C.3   271  ASP271      0.1410
     52  CG        66.9010   51.4580   51.2090 C.2   271  ASP271      0.3668
     53  OD1       67.3510   50.5030   51.8870 O.co2 271  ASP271     -0.2456
     54  OD2       65.6960   51.7100   51.2120 O.co2 271  ASP271     -0.2456
     55  N         55.1180   43.2210   51.2690 N.3   350  HIS350     -0.1226
     56  CA        55.4140   44.5690   50.8030 C.3   350  HIS350      0.1752
     57  C         55.7590   44.5370   49.3220 C.2   350  HIS350      0.2596
     58  O         55.8000   43.4750   48.7070 O.2   350  HIS350     -0.2718
     59  CB        56.5210   45.2210   51.6650 C.3   350  HIS350      0.0759
     60  CG        57.8240   44.4770   51.6720 C.ar  350  HIS350      0.0818
     61  ND1       58.7580   44.6020   50.6620 N.ar  350  HIS350     -0.2268
     62  CD2       58.3540   43.6070   52.5690 C.ar  350  HIS350      0.1154
     63  CE1       59.8020   43.8410   50.9390 C.ar  350  HIS350      0.1986
     64  NE2       59.5760   43.2140   52.0770 N.ar  350  HIS350     -0.2212
     65  N         55.9730   45.7180   48.7540 N.am  351  GLY351     -0.1957
     66  CA        56.2750   45.8400   47.3430 C.3   351  GLY351      0.1869
     67  C         57.7100   45.4840   47.0610 C.2   351  GLY351      0.2309
     68  O         58.5480   45.4930   47.9780 O.2   351  GLY351     -0.2863
     69  N         60.5210   50.5380   45.0420 N.3   354  HIS354     -0.1241
     70  CA        60.0620   51.9210   45.1180 C.3   354  HIS354      0.1621
     71  C         61.1280   52.8350   44.5170 C.2   354  HIS354      0.2264
     72  O         62.3060   52.4850   44.4620 O.2   354  HIS354     -0.2867
     73  CB        59.7180   52.3320   46.5610 C.3   354  HIS354      0.0745
     74  CG        60.8600   52.2510   47.5210 C.ar  354  HIS354      0.0817
     75  ND1       61.8880   53.1750   47.5520 N.ar  354  HIS354     -0.2268
     76  CD2       61.1190   51.3660   48.5140 C.ar  354  HIS354      0.1154
     77  CE1       62.7370   52.8460   48.5140 C.ar  354  HIS354      0.1986
     78  NE2       62.3000   51.7460   49.1080 N.ar  354  HIS354     -0.2212
     79  N         64.2290   58.5480   50.2410 N.3   360  VAL360     -0.1231
     80  CA        64.3410   57.1080   50.1050 C.3   360  VAL360      0.1692
     81  C         63.0970   56.4980   49.4710 C.2   360  VAL360      0.2592
     82  O         63.2330   55.6770   48.5670 O.2   360  VAL360     -0.2718
     83  CB        64.7560   56.3980   51.4270 C.3   360  VAL360      0.0266
     84  CG1       63.6930   56.4640   52.4490 C.3   360  VAL360      0.0020
     85  CG2       65.1460   54.9480   51.1790 C.3   360  VAL360      0.0020
     86  N         61.9050   56.8870   49.9100 N.am  361  HIS361     -0.1976
     87  CA        60.6900   56.5370   49.1630 C.3   361  HIS361      0.1656
     88  C         60.4080   57.7170   48.2570 C.2   361  HIS361      0.2291
     89  O         59.7110   58.6400   48.6500 O.2   361  HIS361     -0.2864
     90  CB        59.4820   56.2760   50.0740 C.3   361  HIS361      0.0771
     91  CG        59.6450   55.0680   50.9310 C.ar  361  HIS361      0.0820
     92  ND1       59.2640   55.0330   52.2550 N.ar  361  HIS361     -0.2267
     93  CD2       60.2140   53.8690   50.6710 C.ar  361  HIS361      0.1154
     94  CE1       59.5730   53.8530   52.7660 C.ar  361  HIS361      0.1986
     95  NE2       60.1540   53.1280   51.8250 N.ar  361  HIS361     -0.2212
     96  N         63.9320   44.9090   46.3380 N.3   383  GLU383     -0.1245
     97  CA        64.0490   44.4640   47.7410 C.3   383  GLU383      0.1567
     98  C         63.0680   43.3340   48.0890 C.2   383  GLU383      0.2260
     99  O         62.2160   43.4600   48.9730 O.2   383  GLU383     -0.2867
    100  CB        63.8370   45.6620   48.6890 C.3   383  GLU383      0.0388
    101  CG        62.5470   46.4240   48.4460 C.3   383  GLU383      0.1160
    102  CD        62.4600   47.6980   49.2590 C.2   383  GLU383      0.3649
    103  OE1       62.6000   47.6410   50.4910 O.co2 383  GLU383     -0.2457
    104  OE2       62.2570   48.7660   48.6560 O.co2 383  GLU383     -0.2457
    105  N         65.7020   39.8250   53.8580 N.3   404  ARG404     -0.1245
    106  CA        65.5090   40.7840   52.7810 C.3   404  ARG404      0.1563
    107  C         66.8710   41.0750   52.1660 C.2   404  ARG404      0.2260
    108  O         67.8990   41.1240   52.8720 O.2   404  ARG404     -0.2867
    109  CB        64.8500   42.0650   53.3190 C.3   404  ARG404      0.0307
    110  CG        64.6700   43.1660   52.2600 C.3   404  ARG404      0.0489
    111  CD        63.5820   44.2180   52.6320 C.3   404  ARG404      0.2205
    112  NE        63.9220   45.0820   53.7710 N.pl3 404  ARG404     -0.0865
    113  CZ        63.4780   44.9500   55.0220 C.cat 404  ARG404      0.5346
    114  NH1       62.6710   43.9580   55.3770 N.pl3 404  ARG404      0.1354
    115  NH2       63.8760   45.8000   55.9450 N.pl3 404  ARG404      0.1354
@<TRIPOS>BOND
     1    72    71    2
     2    71    70    1
     3    69    70    1
     4    70    73    1
     5    96    97    1
     6    73    74    1
     7    67    66    1
     8    67    68    2
     9    66    65    1
    10    74    75   ar
    11    74    76   ar
    12    75    77   ar
    13    97    98    1
    14    97   100    1
    15    98    99    2
    16    88    89    2
    17    88    87    1
    18   101   100    1
    19   101   102    1
    20    76    78   ar
    21    77    78   ar
    22    82    81    2
    23   104   102   ar
    24    58    57    2
    25    65    57   am
    26    87    86    1
    27    87    90    1
    28    50    49    2
    29   102   103   ar
    30    57    56    1
    31    81    86   am
    32    81    80    1
    33    47    48    1
    34    90    91    1
    35    80    79    1
    36    80    83    1
    37    49    48    1
    38    51    48    1
    39    51    52    1
    40    61    63   ar
    41    61    60   ar
    42    93    91   ar
    43    93    95   ar
    44    56    55    1
    45    56    59    1
    46    91    92   ar
    47    63    64   ar
    48    85    83    1
    49    52    54   ar
    50    52    53   ar
    51    83    84    1
    52    59    60    1
    53    60    62   ar
    54    95    94   ar
    55    64    62   ar
    56   107   106    1
    57   107   108    2
    58    92    94   ar
    59   110   111    1
    60   110   109    1
    61   111   112    1
    62   106   109    1
    63   106   105    1
    64   112   113    2
    65     9     7   ar
    66     9    11   ar
    67    12    11    1
    68    45    44   ar
    69     7     6   ar
    70    11    10   ar
    71    46    44   ar
    72   113   114    1
    73   113   115    1
    74    44    43    1
    75     6     5    1
    76     6     8   ar
    77    10     8   ar
    78    27    26    1
    79    40    43    1
    80    40    41    1
    81    40    39    1
    82     1     2    1
    83    28    26    1
    84     5     2    1
    85    38    37   ar
    86    38    36   ar
    87    37    35   ar
    88    41    42    2
    89    26    25    1
    90     2     3    1
    91    25    22    1
    92    36    34   ar
    93    35    34   ar
    94    24    23    2
    95     4     3    2
    96    22    23    1
    97    22    21    1
    98    34    33    1
    99    20    18    1
   100    23    29   am
   101    29    30    1
   102    18    17    1
   103    17    19    1
   104    17    14    1
   105    33    30    1
   106    30    31    1
   107    16    15    2
   108    13    14    1
   109    14    15    1
   110    31    32    2
