@<TRIPOS>MOLECULE
tmp/1wlvD01.pdb
 100 97 0 0 0
SMALL
GASTEIGER

@<TRIPOS>ATOM
      1  N         -5.0410   31.5720   23.0060 N.3    31  ASN31      -0.1240
      2  CA        -5.2760   32.8900   22.4440 C.3    31  ASN31       0.1653
      3  C         -6.5290   33.4540   23.1080 C.2    31  ASN31       0.2266
      4  O         -7.0570   32.8680   24.0550 O.2    31  ASN31      -0.2867
      5  CB        -5.4870   32.8150   20.9280 C.3    31  ASN31       0.1155
      6  CG        -6.5720   31.8290   20.5370 C.2    31  ASN31       0.2627
      7  OD1       -7.6090   31.7360   21.1960 O.2    31  ASN31      -0.2716
      8  ND2       -6.3400   31.0920   19.4540 N.am   31  ASN31      -0.0877
      9  N         -9.4420   33.3920   22.1350 N.3    33  HIS33      -0.1241
     10  CA       -10.5980   32.5230   21.9240 C.3    33  HIS33       0.1621
     11  C        -10.6220   31.2810   22.8110 C.2    33  HIS33       0.2264
     12  O        -11.6040   30.5380   22.8220 O.2    33  HIS33      -0.2867
     13  CB       -10.6620   32.0720   20.4630 C.3    33  HIS33       0.0745
     14  CG       -10.8940   33.1850   19.4910 C.ar   33  HIS33       0.0817
     15  ND1      -11.8980   34.1160   19.6500 N.ar   33  HIS33      -0.2268
     16  CD2      -10.2760   33.4940   18.3260 C.ar   33  HIS33       0.1154
     17  CE1      -11.8890   34.9500   18.6250 C.ar   33  HIS33       0.1986
     18  NE2      -10.9150   34.5940   17.8070 N.ar   33  HIS33      -0.2212
     19  N         -8.3550   28.8440   22.5060 N.3    35  THR35      -0.1203
     20  CA        -7.7590   27.7300   21.7780 C.3    35  THR35       0.1994
     21  C         -6.2600   27.9620   21.6500 C.2    35  THR35       0.2617
     22  O         -5.7680   29.0540   21.9470 O.2    35  THR35      -0.2717
     23  CB        -8.3860   27.5560   20.3700 C.3    35  THR35       0.1784
     24  OG1       -8.2290   28.7600   19.6130 O.3    35  THR35      -0.2211
     25  CG2       -9.8700   27.2300   20.4890 C.3    35  THR35       0.0376
     26  N         -5.5310   26.9300   21.2330 N.am   36  ALA36      -0.1979
     27  CA        -4.0890   27.0480   21.0770 C.3    36  ALA36       0.1597
     28  C         -3.7750   28.2420   20.1880 C.2    36  ALA36       0.2287
     29  O         -4.3140   28.3650   19.0870 O.2    36  ALA36      -0.2864
     30  CB        -3.5160   25.7730   20.4650 C.3    36  ALA36       0.0319
     31  N         -2.0580   30.5540   17.5470 N.3    38  GLY38      -0.1225
     32  CA        -1.3980   30.2150   16.2970 C.3    38  GLY38       0.1811
     33  C          0.1100   30.3470   16.4010 C.2    38  GLY38       0.2280
     34  O          0.8550   29.6520   15.7050 O.2    38  GLY38      -0.2866
     35  N          1.5810   27.0670   18.0720 N.3    41  LEU41      -0.1245
     36  CA         1.6670   25.9710   17.1110 C.3    41  LEU41       0.1561
     37  C          2.7900   26.2430   16.1170 C.2    41  LEU41       0.2260
     38  O          3.4880   25.3230   15.6900 O.2    41  LEU41      -0.2867
     39  CB         0.3440   25.8100   16.3550 C.3    41  LEU41       0.0270
     40  CG        -0.8700   25.4290   17.2080 C.3    41  LEU41       0.0019
     41  CD1       -2.0910   25.2770   16.3200 C.3    41  LEU41       0.0001
     42  CD2       -0.5950   24.1340   17.9520 C.3    41  LEU41       0.0001
     43  N         -3.2540   26.4540    8.8480 N.3    68  TYR68      -0.1227
     44  CA        -4.0060   25.9280    9.9900 C.3    68  TYR68       0.1736
     45  C         -5.2640   25.1760    9.5630 C.2    68  TYR68       0.2595
     46  O         -6.0870   25.7100    8.8150 O.2    68  TYR68      -0.2718
     47  CB        -4.3970   27.0800   10.9150 C.3    68  TYR68       0.0548
     48  CG        -3.2170   27.8340   11.4800 C.ar   68  TYR68      -0.0200
     49  CD1       -2.5580   27.3790   12.6220 C.ar   68  TYR68      -0.0009
     50  CD2       -2.7740   29.0190   10.8910 C.ar   68  TYR68      -0.0009
     51  CE1       -1.4890   28.0920   13.1720 C.ar   68  TYR68       0.0417
     52  CE2       -1.7040   29.7390   11.4310 C.ar   68  TYR68       0.0417
     53  CZ        -1.0700   29.2700   12.5720 C.ar   68  TYR68       0.1957
     54  OH        -0.0220   29.9810   13.1180 O.3    68  TYR68      -0.2866
     55  N         -5.4250   23.9530   10.0660 N.am   69  PHE69      -0.1962
     56  CA        -6.5790   23.1300    9.7020 C.3    69  PHE69       0.1771
     57  C         -7.5890   22.8800   10.8170 C.2    69  PHE69       0.2619
     58  O         -8.7960   22.8550   10.5720 O.2    69  PHE69      -0.2715
     59  CB        -6.1110   21.7650    9.1760 C.3    69  PHE69       0.0574
     60  CG        -5.0840   21.8480    8.0800 C.ar   69  PHE69      -0.0200
     61  CD1       -5.2530   22.7250    7.0110 C.ar   69  PHE69      -0.0042
     62  CD2       -3.9630   21.0260    8.1000 C.ar   69  PHE69      -0.0042
     63  CE1       -4.3160   22.7820    5.9750 C.ar   69  PHE69      -0.0003
     64  CE2       -3.0200   21.0720    7.0710 C.ar   69  PHE69      -0.0003
     65  CZ        -3.1980   21.9530    6.0050 C.ar   69  PHE69      -0.0000
     66  N         -7.1000   22.6840   12.0370 N.am   70  ARG70      -0.1964
     67  CA        -7.9790   22.3890   13.1650 C.3    70  ARG70       0.1714
     68  C         -7.5310   23.1050   14.4360 C.2    70  ARG70       0.2458
     69  O         -6.3390   23.2610   14.6790 O.2    70  ARG70      -0.2730
     70  CB        -7.9690   20.8840   13.4490 C.3    70  ARG70       0.0347
     71  CG        -8.3430   19.9830   12.2800 C.3    70  ARG70       0.0492
     72  CD        -7.8310   18.5730   12.5410 C.3    70  ARG70       0.2205
     73  NE        -8.2610   17.6060   11.5340 N.pl3  70  ARG70      -0.0865
     74  CZ        -9.4230   16.9610   11.5640 C.cat  70  ARG70       0.5346
     75  NH1      -10.2800   17.1750   12.5550 N.pl3  70  ARG70       0.1354
     76  NH2       -9.7260   16.0950   10.6060 N.pl3  70  ARG70       0.1354
     77  N         -8.4870   23.5430   15.2650 N.am   71  PRO71      -0.2716
     78  CA        -8.1330   24.2300   16.5090 C.3    71  PRO71       0.1536
     79  C         -7.8430   23.1930   17.5920 C.2    71  PRO71       0.2598
     80  O         -8.2780   22.0440   17.4910 O.2    71  PRO71      -0.2715
     81  CB        -9.3850   25.0400   16.8120 C.3    71  PRO71       0.0310
     82  CG       -10.4730   24.1050   16.3600 C.3    71  PRO71       0.0237
     83  CD        -9.9420   23.5990   15.0280 C.3    71  PRO71       0.0939
     84  N         -7.1030   23.5980   18.6200 N.am   72  LEU72      -0.1978
     85  CA        -6.7730   22.7100   19.7310 C.3    72  LEU72       0.1596
     86  C         -7.0760   23.3990   21.0540 C.2    72  LEU72       0.2287
     87  O         -6.9650   24.6190   21.1630 O.2    72  LEU72      -0.2864
     88  CB        -5.2910   22.3290   19.7000 C.3    72  LEU72       0.0297
     89  CG        -4.8290   21.3880   18.5890 C.3    72  LEU72       0.0022
     90  CD1       -3.3270   21.1560   18.7280 C.3    72  LEU72       0.0001
     91  CD2       -5.5920   20.0680   18.6820 C.3    72  LEU72       0.0001
     92  N         -4.6870   13.7440   14.4270 N.3   103  LYS103     -0.1245
     93  CA        -5.2100   14.6930   13.4440 C.3   103  LYS103      0.1561
     94  C         -4.1330   15.6540   12.9590 C.2   103  LYS103      0.2260
     95  O         -3.2770   16.0720   13.7380 O.2   103  LYS103     -0.2867
     96  CB        -6.3490   15.5230   14.0420 C.3   103  LYS103      0.0271
     97  CG        -7.4100   14.7250   14.7790 C.3   103  LYS103      0.0035
     98  CD        -8.5440   15.6270   15.2510 C.3   103  LYS103      0.0206
     99  CE        -8.0540   16.7270   16.1780 C.3   103  LYS103      0.1093
    100  NZ        -7.4720   16.1800   17.4310 N.3   103  LYS103     -0.1314
@<TRIPOS>BOND
     1    63    65   ar
     2    63    61   ar
     3    65    64   ar
     4    61    60   ar
     5    64    62   ar
     6    60    62   ar
     7    60    59    1
     8    46    45    2
     9    43    44    1
    10    59    56    1
    11    45    44    1
    12    45    55   am
    13    56    55    1
    14    56    57    1
    15    44    47    1
    16    58    57    2
    17    76    74    1
    18    57    66   am
    19    50    52   ar
    20    50    48   ar
    21    47    48    1
    22    52    53   ar
    23    48    49   ar
    24    73    74    2
    25    73    72    1
    26    74    75    1
    27    66    67    1
    28    71    72    1
    29    71    70    1
    30    53    54    1
    31    53    51   ar
    32    49    51   ar
    33    94    93    1
    34    94    95    2
    35    67    70    1
    36    67    68    1
    37    93    96    1
    38    93    92    1
    39    96    97    1
    40    68    69    2
    41    68    77   am
    42    97    98    1
    43    83    77    1
    44    83    82    1
    45    98    99    1
    46    77    78    1
    47    38    37    2
    48    34    33    2
    49    37    36    1
    50    99   100    1
    51    32    33    1
    52    32    31    1
    53    41    40    1
    54    39    36    1
    55    39    40    1
    56    82    81    1
    57    78    81    1
    58    78    79    1
    59    36    35    1
    60    40    42    1
    61    80    79    2
    62    79    84   am
    63    18    16   ar
    64    18    17   ar
    65    16    14   ar
    66    89    91    1
    67    89    90    1
    68    89    88    1
    69    84    85    1
    70    17    15   ar
    71    29    28    2
    72     8     6   am
    73    14    15   ar
    74    14    13    1
    75    24    23    1
    76    88    85    1
    77    85    86    1
    78    28    27    1
    79    23    25    1
    80    23    20    1
    81    13    10    1
    82    30    27    1
    83     6     5    1
    84     6     7    2
    85     5     2    1
    86    86    87    2
    87    27    26    1
    88    26    21   am
    89    21    20    1
    90    21    22    2
    91    20    19    1
    92    10     9    1
    93    10    11    1
    94     2     1    1
    95     2     3    1
    96    11    12    2
    97     3     4    2
