@<TRIPOS>MOLECULE
tmp/1wm1A00.pdb
 210 207 0 0 0
SMALL
GASTEIGER

@<TRIPOS>ATOM
      1  N         35.4080   -4.5950   -5.2180 N.3    39  PHE39      -0.1241
      2  CA        34.3490   -3.6200   -5.4510 C.3    39  PHE39       0.1605
      3  C         33.1990   -4.2660   -6.2240 C.2    39  PHE39       0.2264
      4  O         33.4080   -4.8620   -7.2850 O.2    39  PHE39      -0.2867
      5  CB        34.9050   -2.4380   -6.2490 C.3    39  PHE39       0.0534
      6  CG        33.8690   -1.4210   -6.6240 C.ar   39  PHE39      -0.0203
      7  CD1       33.4740   -0.4450   -5.7160 C.ar   39  PHE39      -0.0042
      8  CD2       33.2630   -1.4630   -7.8780 C.ar   39  PHE39      -0.0042
      9  CE1       32.4830    0.4790   -6.0500 C.ar   39  PHE39      -0.0003
     10  CE2       32.2790   -0.5530   -8.2230 C.ar   39  PHE39      -0.0003
     11  CZ        31.8830    0.4250   -7.3040 C.ar   39  PHE39      -0.0000
     12  N         29.7790   -3.4610   -8.1350 N.3    41  HIS41      -0.1226
     13  CA        28.9560   -2.4030   -8.6860 C.3    41  HIS41       0.1752
     14  C         27.4630   -2.6840   -8.5240 C.2    41  HIS41       0.2597
     15  O         27.0600   -3.8010   -8.1870 O.2    41  HIS41      -0.2718
     16  CB        29.3270   -2.1430  -10.1580 C.3    41  HIS41       0.0759
     17  CG        28.8680   -3.2020  -11.1130 C.ar   41  HIS41       0.0818
     18  ND1       29.7420   -3.9250  -11.8990 N.ar   41  HIS41      -0.2268
     19  CD2       27.6260   -3.6270  -11.4460 C.ar   41  HIS41       0.1154
     20  CE1       29.0580   -4.7490  -12.6740 C.ar   41  HIS41       0.1986
     21  NE2       27.7720   -4.5880  -12.4190 N.ar   41  HIS41      -0.2212
     22  N         26.6490   -1.6590   -8.7600 N.am   42  GLY42      -0.1942
     23  CA        25.2110   -1.7990   -8.6100 C.3    42  GLY42       0.2014
     24  C         24.4540   -2.1370   -9.8780 C.2    42  GLY42       0.2639
     25  O         25.0360   -2.5710  -10.8740 O.2    42  GLY42      -0.2714
     26  N         23.1420   -1.9390   -9.8320 N.am   43  GLY43      -0.1954
     27  CA        22.3050   -2.2380  -10.9730 C.3    43  GLY43       0.1869
     28  C         21.1890   -3.1690  -10.5520 C.2    43  GLY43       0.2309
     29  O         20.2170   -2.7150   -9.9610 O.2    43  GLY43      -0.2863
     30  N         25.0190   -2.4620  -13.9850 N.3    46  GLY46      -0.1225
     31  CA        25.5460   -1.1070  -14.0060 C.3    46  GLY46       0.1811
     32  C         26.9690   -0.9110  -14.5060 C.2    46  GLY46       0.2280
     33  O         27.2680    0.1150  -15.1210 O.2    46  GLY46      -0.2866
     34  N         35.5870    4.4700   -9.6220 N.3    52  HIS52      -0.1241
     35  CA        35.4450    3.5480   -8.5050 C.3    52  HIS52       0.1621
     36  C         36.8280    3.1830   -7.9670 C.2    52  HIS52       0.2264
     37  O         36.9510    2.6900   -6.8520 O.2    52  HIS52      -0.2867
     38  CB        34.7020    2.2750   -8.9220 C.3    52  HIS52       0.0745
     39  CG        33.3080    2.5140   -9.4240 C.ar   52  HIS52       0.0817
     40  ND1       32.4330    3.3920   -8.8180 N.ar   52  HIS52      -0.2268
     41  CD2       32.6280    1.9590  -10.4550 C.ar   52  HIS52       0.1154
     42  CE1       31.2760    3.3690   -9.4560 C.ar   52  HIS52       0.1986
     43  NE2       31.3670    2.5060  -10.4520 N.ar   52  HIS52      -0.2212
     44  N         27.5850   -1.1130   -2.9450 N.3   109  GLY109     -0.1210
     45  CA        26.4720   -0.2280   -2.6790 C.3   109  GLY109      0.1956
     46  C         25.2980   -0.5160   -3.5950 C.2   109  GLY109      0.2613
     47  O         25.4860   -0.9570   -4.7360 O.2   109  GLY109     -0.2717
     48  N         24.0880   -0.2850   -3.1010 N.am  110  SER110     -0.1938
     49  CA        22.9020   -0.5030   -3.9190 C.3   110  SER110      0.2055
     50  C         22.7670   -1.9990   -4.2370 C.2   110  SER110      0.2643
     51  O         22.8070   -2.8110   -3.3200 O.2   110  SER110     -0.2714
     52  CB        23.0480    0.3160   -5.1930 C.3   110  SER110      0.2130
     53  OG        21.8090    0.8630   -5.5550 O.3   110  SER110     -0.2179
     54  N         22.6010   -2.3800   -5.5060 N.am  111  TRP111     -0.1973
     55  CA        22.5190   -3.8100   -5.8020 C.3   111  TRP111      0.1640
     56  C         23.8420   -4.4390   -5.3480 C.2   111  TRP111      0.2290
     57  O         23.8890   -5.6120   -4.9930 O.2   111  TRP111     -0.2864
     58  CB        22.2780   -4.0770   -7.2950 C.3   111  TRP111      0.0576
     59  CG        22.8740   -5.3870   -7.7660 C.ar  111  TRP111      0.0006
     60  CD1       24.0740   -5.5560   -8.3960 C.ar  111  TRP111      0.0946
     61  CD2       22.3390   -6.7080   -7.5700 C.ar  111  TRP111      0.0152
     62  NE1       24.3220   -6.8950   -8.6020 N.ar  111  TRP111     -0.2442
     63  CE2       23.2760   -7.6230   -8.1040 C.ar  111  TRP111      0.0810
     64  CE3       21.1630   -7.2050   -6.9960 C.ar  111  TRP111      0.0012
     65  CZ2       23.0730   -9.0120   -8.0800 C.ar  111  TRP111      0.0191
     66  CZ3       20.9590   -8.5870   -6.9740 C.ar  111  TRP111      0.0001
     67  CH2       21.9120   -9.4710   -7.5130 C.ar  111  TRP111      0.0015
     68  N         26.3930    0.5730    1.2240 N.3   133  ARG133     -0.1245
     69  CA        25.7270    1.8520    0.9910 C.3   133  ARG133      0.1563
     70  C         24.4030    1.6340    0.2480 C.2   133  ARG133      0.2260
     71  O         24.2980    0.7380   -0.5880 O.2   133  ARG133     -0.2867
     72  CB        26.6600    2.7700    0.1830 C.3   133  ARG133      0.0307
     73  CG        26.1160    4.1610   -0.1730 C.3   133  ARG133      0.0489
     74  CD        25.3080    4.1780   -1.4710 C.3   133  ARG133      0.2205
     75  NE        26.0580    3.5920   -2.5820 N.pl3 133  ARG133     -0.0865
     76  CZ        25.6150    3.4950   -3.8320 C.cat 133  ARG133      0.5346
     77  NH1       24.4140    3.9560   -4.1670 N.pl3 133  ARG133      0.1354
     78  NH2       26.3680    2.8970   -4.7480 N.pl3 133  ARG133      0.1354
     79  N         19.8180   -2.5140   -0.2390 N.3   136  PHE136     -0.1241
     80  CA        18.7820   -3.0890   -1.0940 C.3   136  PHE136      0.1605
     81  C         18.8050   -4.5950   -0.7990 C.2   136  PHE136      0.2264
     82  O         19.8200   -5.2430   -1.0320 O.2   136  PHE136     -0.2867
     83  CB        19.1790   -2.8260   -2.5530 C.3   136  PHE136      0.0534
     84  CG        18.1290   -3.1830   -3.5640 C.ar  136  PHE136     -0.0203
     85  CD1       18.5050   -3.6520   -4.8210 C.ar  136  PHE136     -0.0042
     86  CD2       16.7770   -2.9950   -3.2980 C.ar  136  PHE136     -0.0042
     87  CE1       17.5470   -3.9270   -5.7990 C.ar  136  PHE136     -0.0003
     88  CE2       15.8140   -3.2660   -4.2680 C.ar  136  PHE136     -0.0003
     89  CZ        16.1990   -3.7320   -5.5200 C.ar  136  PHE136     -0.0000
     90  N          9.8670    1.1240   -5.8300 N.3   146  TYR146     -0.1227
     91  CA        10.5340    1.8010   -6.9230 C.3   146  TYR146      0.1736
     92  C          9.9510    1.5760   -8.3030 C.2   146  TYR146      0.2595
     93  O         10.0400    2.4580   -9.1550 O.2   146  TYR146     -0.2718
     94  CB        12.0160    1.4140   -6.9090 C.3   146  TYR146      0.0548
     95  CG        12.9440    2.3850   -7.6030 C.ar  146  TYR146     -0.0200
     96  CD1       12.7150    3.7630   -7.5510 C.ar  146  TYR146     -0.0009
     97  CD2       14.1050    1.9340   -8.2340 C.ar  146  TYR146     -0.0009
     98  CE1       13.6260    4.6720   -8.1060 C.ar  146  TYR146      0.0417
     99  CE2       15.0250    2.8300   -8.7890 C.ar  146  TYR146      0.0417
    100  CZ        14.7800    4.1990   -8.7150 C.ar  146  TYR146      0.1957
    101  OH        15.7210    5.0840   -9.1990 O.3   146  TYR146     -0.2866
    102  N          9.3250    0.4230   -8.5230 N.am  147  TYR147     -0.1976
    103  CA         8.7890    0.1190   -9.8430 C.3   147  TYR147      0.1639
    104  C          7.2840   -0.0570  -10.0130 C.2   147  TYR147      0.2290
    105  O          6.8350   -0.4010  -11.1020 O.2   147  TYR147     -0.2864
    106  CB         9.4990   -1.1170  -10.3860 C.3   147  TYR147      0.0560
    107  CG        10.9940   -0.9380  -10.4680 C.ar  147  TYR147     -0.0198
    108  CD1       11.5660   -0.1220  -11.4480 C.ar  147  TYR147     -0.0009
    109  CD2       11.8380   -1.5620   -9.5530 C.ar  147  TYR147     -0.0009
    110  CE1       12.9460    0.0650  -11.5130 C.ar  147  TYR147      0.0417
    111  CE2       13.2160   -1.3810   -9.6070 C.ar  147  TYR147      0.0417
    112  CZ        13.7620   -0.5660  -10.5890 C.ar  147  TYR147      0.1957
    113  OH        15.1250   -0.3750  -10.6360 O.3   147  TYR147     -0.2866
    114  N         15.5840    5.6630  -13.5430 N.3   201  GLU201     -0.1245
    115  CA        16.5200    5.4960  -12.4590 C.3   201  GLU201      0.1567
    116  C         17.5690    6.5980  -12.4620 C.2   201  GLU201      0.2260
    117  O         17.8750    7.1740  -11.4220 O.2   201  GLU201     -0.2867
    118  CB        17.1920    4.1270  -12.5490 C.3   201  GLU201      0.0388
    119  CG        18.1800    3.8820  -11.4250 C.3   201  GLU201      0.1160
    120  CD        18.5190    2.4120  -11.2520 C.2   201  GLU201      0.3649
    121  OE1       19.6340    2.1270  -10.7690 O.co2 201  GLU201     -0.2457
    122  OE2       17.6710    1.5520  -11.5840 O.co2 201  GLU201     -0.2457
    123  N         18.2400    9.1040   -8.6380 N.3   205  VAL205     -0.1245
    124  CA        19.2580    8.6440   -7.6960 C.3   205  VAL205      0.1561
    125  C         20.0660    9.7300   -6.9800 C.2   205  VAL205      0.2260
    126  O         20.9130    9.4140   -6.1450 O.2   205  VAL205     -0.2867
    127  CB        20.2410    7.6450   -8.3750 C.3   205  VAL205      0.0252
    128  CG1       19.4960    6.3600   -8.7320 C.3   205  VAL205      0.0019
    129  CG2       20.8570    8.2630   -9.6390 C.3   205  VAL205      0.0019
    130  N         22.3720    7.6450  -18.7980 N.3   216  PHE216     -0.1241
    131  CA        21.5760    6.4380  -18.5920 C.3   216  PHE216      0.1605
    132  C         20.7710    6.1120  -19.8390 C.2   216  PHE216      0.2264
    133  O         20.2910    4.9910  -20.0010 O.2   216  PHE216     -0.2867
    134  CB        20.6180    6.6080  -17.4140 C.3   216  PHE216      0.0534
    135  CG        21.2420    6.3380  -16.0800 C.ar  216  PHE216     -0.0203
    136  CD1       22.1700    7.2210  -15.5370 C.ar  216  PHE216     -0.0042
    137  CD2       20.8900    5.2040  -15.3580 C.ar  216  PHE216     -0.0042
    138  CE1       22.7390    6.9810  -14.2870 C.ar  216  PHE216     -0.0003
    139  CE2       21.4510    4.9510  -14.1090 C.ar  216  PHE216     -0.0003
    140  CZ        22.3790    5.8440  -13.5710 C.ar  216  PHE216     -0.0000
    141  N         21.5700   -2.6180  -19.1020 N.3   225  PHE225     -0.1241
    142  CA        21.1170   -2.1860  -17.7820 C.3   225  PHE225      0.1605
    143  C         19.6840   -2.6460  -17.5310 C.2   225  PHE225      0.2264
    144  O         19.4220   -3.4060  -16.5950 O.2   225  PHE225     -0.2867
    145  CB        21.1990   -0.6560  -17.6900 C.3   225  PHE225      0.0534
    146  CG        20.9040   -0.0970  -16.3190 C.ar  225  PHE225     -0.0203
    147  CD1       19.8040    0.7310  -16.1150 C.ar  225  PHE225     -0.0042
    148  CD2       21.7530   -0.3590  -15.2450 C.ar  225  PHE225     -0.0042
    149  CE1       19.5510    1.2960  -14.8650 C.ar  225  PHE225     -0.0003
    150  CE2       21.5110    0.2020  -13.9860 C.ar  225  PHE225     -0.0003
    151  CZ        20.4040    1.0340  -13.7970 C.ar  225  PHE225     -0.0000
    152  N         18.5990   -5.7330  -15.1040 N.3   229  GLU229     -0.1245
    153  CA        17.8410   -5.3610  -13.9080 C.3   229  GLU229      0.1567
    154  C         16.4720   -6.0380  -13.8960 C.2   229  GLU229      0.2260
    155  O         16.1000   -6.7150  -12.9380 O.2   229  GLU229     -0.2867
    156  CB        17.6180   -3.8520  -13.8510 C.3   229  GLU229      0.0388
    157  CG        18.7360   -3.0750  -13.2160 C.3   229  GLU229      0.1160
    158  CD        18.3070   -1.6680  -12.8550 C.2   229  GLU229      0.3649
    159  OE1       19.0340   -1.0190  -12.0740 O.co2 229  GLU229     -0.2457
    160  OE2       17.2490   -1.2140  -13.3540 O.co2 229  GLU229     -0.2457
    161  N         14.7950   -8.7270  -11.2400 N.3   233  PHE233     -0.1241
    162  CA        13.6010   -8.3910  -10.4830 C.3   233  PHE233      0.1605
    163  C         12.4570   -9.3190  -10.8350 C.2   233  PHE233      0.2264
    164  O         11.6170   -9.6160   -9.9920 O.2   233  PHE233     -0.2867
    165  CB        13.2040   -6.9320  -10.7250 C.3   233  PHE233      0.0534
    166  CG        14.2780   -5.9480  -10.3410 C.ar  233  PHE233     -0.0203
    167  CD1       15.3480   -6.3470   -9.5450 C.ar  233  PHE233     -0.0042
    168  CD2       14.2410   -4.6370  -10.8020 C.ar  233  PHE233     -0.0042
    169  CE1       16.3660   -5.4630   -9.2210 C.ar  233  PHE233     -0.0003
    170  CE2       15.2590   -3.7430  -10.4800 C.ar  233  PHE233     -0.0003
    171  CZ        16.3190   -4.1580   -9.6930 C.ar  233  PHE233     -0.0000
    172  N         15.5840    5.4010   -4.4220 N.3   267  ALA267     -0.1231
    173  CA        15.6530    4.0940   -5.0750 C.3   267  ALA267      0.1694
    174  C         15.5290    2.9720   -4.0480 C.2   267  ALA267      0.2592
    175  O         14.8960    1.9520   -4.3100 O.2   267  ALA267     -0.2718
    176  CB        16.9670    3.9560   -5.8470 C.3   267  ALA267      0.0304
    177  N         16.1410    3.1760   -2.8850 N.am  268  CYS268     -0.1970
    178  CA        16.1240    2.2140   -1.7840 C.3   268  CYS268      0.1712
    179  C         15.8410    2.9920   -0.5030 C.2   268  CYS268      0.2296
    180  O         16.6640    3.7850   -0.0600 O.2   268  CYS268     -0.2864
    181  CB        17.4840    1.5270   -1.6530 C.3   268  CYS268      0.0983
    182  SG        18.1100    0.8150   -3.1910 S.3   268  CYS268     -0.0798
    183  N         20.4600    8.7970   -3.2010 N.3   293  HIS293     -0.1226
    184  CA        20.9490    7.4300   -3.3300 C.3   293  HIS293      0.1752
    185  C         22.4100    7.2420   -3.7380 C.2   293  HIS293      0.2597
    186  O         23.1250    6.4570   -3.1210 O.2   293  HIS293     -0.2718
    187  CB        20.0800    6.6810   -4.3450 C.3   293  HIS293      0.0759
    188  CG        20.4770    5.2500   -4.5460 C.ar  293  HIS293      0.0818
    189  ND1       20.4190    4.3150   -3.5350 N.ar  293  HIS293     -0.2268
    190  CD2       20.9310    4.5920   -5.6410 C.ar  293  HIS293      0.1154
    191  CE1       20.8210    3.1420   -3.9980 C.ar  293  HIS293      0.1986
    192  NE2       21.1390    3.2840   -5.2720 N.ar  293  HIS293     -0.2212
    193  N         22.8270    7.9560   -4.7810 N.am  294  SER294     -0.1938
    194  CA        24.1700    7.8320   -5.3530 C.3   294  SER294      0.2055
    195  C         25.3670    7.8850   -4.4030 C.2   294  SER294      0.2643
    196  O         25.3780    8.6410   -3.4320 O.2   294  SER294     -0.2714
    197  CB        24.3380    8.8730   -6.4590 C.3   294  SER294      0.2130
    198  OG        25.5340    8.6430   -7.1780 O.3   294  SER294     -0.2179
    199  N         26.3850    7.0770   -4.6990 N.am  295  TYR295     -0.1973
    200  CA        27.5840    7.0200   -3.8660 C.3   295  TYR295      0.1639
    201  C         28.3260    8.3530   -3.8160 C.2   295  TYR295      0.2290
    202  O         28.9640    8.6680   -2.8170 O.2   295  TYR295     -0.2864
    203  CB        28.5320    5.9220   -4.3680 C.3   295  TYR295      0.0560
    204  CG        29.4850    6.3730   -5.4510 C.ar  295  TYR295     -0.0198
    205  CD1       30.8100    6.7000   -5.1450 C.ar  295  TYR295     -0.0009
    206  CD2       29.0650    6.4910   -6.7720 C.ar  295  TYR295     -0.0009
    207  CE1       31.6910    7.1330   -6.1290 C.ar  295  TYR295      0.0417
    208  CE2       29.9370    6.9240   -7.7670 C.ar  295  TYR295      0.0417
    209  CZ        31.2510    7.2450   -7.4370 C.ar  295  TYR295      0.1957
    210  OH        32.1160    7.6900   -8.4090 O.3   295  TYR295     -0.2866
@<TRIPOS>BOND
     1   133   132    2
     2   132   131    1
     3   141   142    1
     4   130   131    1
     5   131   134    1
     6   142   145    1
     7   142   143    1
     8   145   146    1
     9   143   144    2
    10   134   135    1
    11   146   147   ar
    12   146   148   ar
    13   147   149   ar
    14   135   136   ar
    15   135   137   ar
    16   136   138   ar
    17   137   139   ar
    18   148   150   ar
    19    33    32    2
    20   152   153    1
    21   149   151   ar
    22    32    31    1
    23   138   140   ar
    24   139   140   ar
    25    31    30    1
    26   150   151   ar
    27   153   154    1
    28   153   156    1
    29   154   155    2
    30   156   157    1
    31   114   115    1
    32   160   158   ar
    33   157   158    1
    34   158   159   ar
    35    20    21   ar
    36    20    18   ar
    37   118   115    1
    38   118   119    1
    39   116   115    1
    40   116   117    2
    41    21    19   ar
    42    18    17   ar
    43   122   120   ar
    44   110   108   ar
    45   110   112   ar
    46   108   107   ar
    47    19    17   ar
    48   119   120    1
    49   120   121   ar
    50   161   162    1
    51    17    16    1
    52   105   104    2
    53    27    28    1
    54    27    26    1
    55    25    24    2
    56   163   162    1
    57   163   164    2
    58   168   170   ar
    59   168   166   ar
    60   165   162    1
    61   165   166    1
    62   113   112    1
    63   112   111   ar
    64    28    29    2
    65   170   171   ar
    66   107   106    1
    67   107   109   ar
    68    41    43   ar
    69    41    39   ar
    70    43    42   ar
    71   106   103    1
    72   166   167   ar
    73    16    13    1
    74   104   103    1
    75    24    26   am
    76    24    23    1
    77   103   102    1
    78   171   169   ar
    79   129   127    1
    80    34    35    1
    81   111   109   ar
    82   167   169   ar
    83    42    40   ar
    84    39    38    1
    85    39    40   ar
    86   101   100    1
    87    93    92    2
    88    38    35    1
    89    99   100   ar
    90    99    97   ar
    91    22    23    1
    92    22    14   am
    93   128   127    1
    94   100    98   ar
    95    13    14    1
    96    13    12    1
    97   123   124    1
    98    62    60   ar
    99    62    63   ar
   100    14    15    2
   101   102    92   am
   102    35    36    1
   103   210   209    1
   104    60    59   ar
   105   127   124    1
   106    92    91    1
   107    97    95   ar
   108    10     8   ar
   109    10    11   ar
   110    98    96   ar
   111    63    65   ar
   112    63    61   ar
   113    65    67   ar
   114    36    37    2
   115     8     6   ar
   116   208   209   ar
   117   208   206   ar
   118    59    61   ar
   119    59    58    1
   120   124   125    1
   121    95    96   ar
   122    95    94    1
   123    61    64   ar
   124    67    66   ar
   125   209   207   ar
   126    11     9   ar
   127    58    55    1
   128     4     3    2
   129   198   197    1
   130    64    66   ar
   131   125   126    2
   132    91    94    1
   133    91    90    1
   134   206   204   ar
   135     6     5    1
   136     6     7   ar
   137   197   194    1
   138     5     2    1
   139     3     2    1
   140   207   205   ar
   141     9     7   ar
   142   176   173    1
   143    55    54    1
   144    55    56    1
   145    87    89   ar
   146    87    85   ar
   147   190   192   ar
   148   190   188   ar
   149    53    52    1
   150    89    88   ar
   151    54    50   am
   152   204   205   ar
   153   204   203    1
   154     2     1    1
   155   194   193    1
   156   194   195    1
   157    56    57    2
   158   192   191   ar
   159    52    49    1
   160   173   172    1
   161   173   174    1
   162    85    84   ar
   163   193   185   am
   164    78    76    1
   165    47    46    2
   166   199   195   am
   167   199   200    1
   168   188   187    1
   169   188   189   ar
   170   195   196    2
   171   203   200    1
   172   187   184    1
   173   175   174    2
   174    88    86   ar
   175    50    49    1
   176    50    51    2
   177    77    76    1
   178   174   177   am
   179   191   189   ar
   180    49    48    1
   181   200   201    1
   182    76    75    2
   183   201   202    2
   184   185   184    1
   185   185   186    2
   186    46    48   am
   187    46    45    1
   188    84    86   ar
   189    84    83    1
   190   184   183    1
   191   182   181    1
   192    44    45    1
   193   177   178    1
   194    75    74    1
   195    83    80    1
   196   178   181    1
   197   178   179    1
   198    74    73    1
   199    80    81    1
   200    80    79    1
   201    82    81    2
   202    71    70    2
   203   179   180    2
   204    73    72    1
   205    72    69    1
   206    70    69    1
   207    69    68    1
