@<TRIPOS>MOLECULE
tmp/1wmaA03.pdb
 105 101 0 0 0
SMALL
GASTEIGER

@<TRIPOS>ATOM
      1  N         28.8040   18.5400   12.7850 N.3    92  ALA92      -0.1231
      2  CA        29.9480   18.4190   11.9090 C.3    92  ALA92       0.1694
      3  C         30.7480   19.7170   11.9280 C.2    92  ALA92       0.2592
      4  O         30.1800   20.7980   11.8970 O.2    92  ALA92      -0.2718
      5  CB        29.5420   18.1830   10.4700 C.3    92  ALA92       0.0304
      6  N         32.0380   19.6350   11.9230 N.am   93  PHE93      -0.1962
      7  CA        32.9020   20.8020   11.8600 C.3    93  PHE93       0.1771
      8  C         33.0990   21.2030   10.4200 C.2    93  PHE93       0.2619
      9  O         33.2650   20.3350    9.5430 O.2    93  PHE93      -0.2715
     10  CB        34.2790   20.5520   12.4960 C.3    93  PHE93       0.0574
     11  CG        34.2370   20.4930   14.0210 C.ar   93  PHE93      -0.0200
     12  CD1       33.8160   19.3650   14.6760 C.ar   93  PHE93      -0.0042
     13  CD2       34.6590   21.5980   14.7440 C.ar   93  PHE93      -0.0042
     14  CE1       33.8250   19.3400   16.0740 C.ar   93  PHE93      -0.0003
     15  CE2       34.6630   21.5380   16.1250 C.ar   93  PHE93      -0.0003
     16  CZ        34.2560   20.4160   16.7730 C.ar   93  PHE93      -0.0000
     17  N         33.1380   22.5040   10.1410 N.am   94  LYS94      -0.1963
     18  CA        33.3490   22.8850    8.7410 C.3    94  LYS94       0.1728
     19  C         34.8090   22.8190    8.3340 C.2    94  LYS94       0.2616
     20  O         35.6780   22.7000    9.2060 O.2    94  LYS94      -0.2715
     21  CB        32.7680   24.3010    8.5510 C.3    94  LYS94       0.0311
     22  CG        31.2530   24.2440    8.7500 C.3    94  LYS94       0.0038
     23  CD        30.4790   25.2290    7.9160 C.3    94  LYS94       0.0206
     24  CE        28.9750   25.2110    8.1740 C.3    94  LYS94       0.1093
     25  NZ        28.5190   23.9140    8.7390 N.3    94  LYS94      -0.1314
     26  N         35.0680   22.9150    7.0340 N.am   95  VAL95      -0.1977
     27  CA        36.3840   22.9950    6.4420 C.3    95  VAL95       0.1596
     28  C         37.1710   24.1280    7.0780 C.2    95  VAL95       0.2287
     29  O         36.6340   25.2290    7.1870 O.2    95  VAL95      -0.2864
     30  CB        36.2910   23.2510    4.9210 C.3    95  VAL95       0.0276
     31  CG1       37.6760   23.4740    4.3280 C.3    95  VAL95       0.0022
     32  CG2       35.6070   22.0770    4.2450 C.3    95  VAL95       0.0022
     33  N         28.2950    9.5590    3.7970 N.3   140  MET140     -0.1245
     34  CA        29.6920    9.6410    4.1940 C.3   140  MET140      0.1570
     35  C         30.1380    8.4170    4.9720 C.2   140  MET140      0.2261
     36  O         31.3520    8.1480    4.9920 O.2   140  MET140     -0.2867
     37  CB        29.9510   10.9330    4.9580 C.3   140  MET140      0.0387
     38  CG        29.7490   12.1780    4.1160 C.3   140  MET140      0.0595
     39  SD        30.8440   12.2640    2.7080 S.3   140  MET140     -0.1393
     40  CE        29.9990   13.4930    1.7400 C.3   140  MET140      0.0692
     41  N         31.1800    6.0240    2.2100 N.3   143  ARG143     -0.1245
     42  CA        32.3910    6.6130    1.6370 C.3   143  ARG143      0.1563
     43  C         33.5750    6.3660    2.5610 C.2   143  ARG143      0.2260
     44  O         34.6710    5.9480    2.1830 O.2   143  ARG143     -0.2867
     45  CB        32.1070    8.0920    1.3680 C.3   143  ARG143      0.0307
     46  CG        33.2090    9.0020    0.8700 C.3   143  ARG143      0.0489
     47  CD        33.8100    8.4580   -0.4080 C.3   143  ARG143      0.2205
     48  NE        34.7940    9.3950   -0.9740 N.pl3 143  ARG143     -0.0865
     49  CZ        34.7670    9.9470   -2.1870 C.cat 143  ARG143      0.5346
     50  NH1       33.7800    9.6800   -3.0280 N.pl3 143  ARG143      0.1354
     51  NH2       35.7320   10.8010   -2.5810 N.pl3 143  ARG143      0.1354
     52  N         38.5310   11.1780    7.5590 N.3   190  SER190     -0.1217
     53  CA        37.3890   11.9820    7.9370 C.3   190  SER190      0.1889
     54  C         36.7970   11.5780    9.2780 C.2   190  SER190      0.2288
     55  O         36.2270   10.4920    9.4240 O.2   190  SER190     -0.2866
     56  CB        36.3030   11.9070    6.8670 C.3   190  SER190      0.2089
     57  OG        35.1220   12.6040    7.3390 O.3   190  SER190     -0.2183
     58  N         34.1640   12.9730   10.8190 N.3   192  TYR192     -0.1241
     59  CA        32.7280   12.8860   10.7050 C.3   192  TYR192      0.1605
     60  C         32.3270   11.5600   10.0710 C.2   192  TYR192      0.2264
     61  O         31.3740   10.9030   10.5030 O.2   192  TYR192     -0.2867
     62  CB        32.1930   14.0590    9.9250 C.3   192  TYR192      0.0534
     63  CG        30.7360   14.0280    9.5690 C.ar  192  TYR192     -0.0201
     64  CD1       29.7640   14.5630   10.4080 C.ar  192  TYR192     -0.0009
     65  CD2       30.2880   13.4780    8.3700 C.ar  192  TYR192     -0.0009
     66  CE1       28.4340   14.5410   10.0870 C.ar  192  TYR192      0.0417
     67  CE2       28.9480   13.4670    8.0410 C.ar  192  TYR192      0.0417
     68  CZ        28.0140   14.0140    8.9140 C.ar  192  TYR192      0.1957
     69  OH        26.6690   14.0320    8.5680 O.3   192  TYR192     -0.2866
     70  N         22.0750   15.4660    0.2390 N.3   228  TRP228     -0.1241
     71  CA        22.7830   16.7270    0.4930 C.3   228  TRP228      0.1605
     72  C         21.7710   17.8560    0.6140 C.2   228  TRP228      0.2264
     73  O         21.1150   18.1970   -0.3880 O.2   228  TRP228     -0.2867
     74  CB        23.7770   16.9650   -0.6220 C.3   228  TRP228      0.0550
     75  CG        24.7500   18.0650   -0.3350 C.ar  228  TRP228      0.0003
     76  CD1       25.2610   18.4580    0.8510 C.ar  228  TRP228      0.0946
     77  CD2       25.3680   18.9180   -1.3300 C.ar  228  TRP228      0.0152
     78  NE1       26.1370   19.4990    0.6880 N.ar  228  TRP228     -0.2442
     79  CE2       26.2220   19.8020   -0.6320 C.ar  228  TRP228      0.0810
     80  CE3       25.2870   19.0190   -2.7100 C.ar  228  TRP228      0.0012
     81  CZ2       26.9820   20.7820   -1.2720 C.ar  228  TRP228      0.0191
     82  CZ3       26.0370   19.9940   -3.3430 C.ar  228  TRP228      0.0001
     83  CH2       26.8690   20.8580   -2.6360 C.ar  228  TRP228      0.0015
     84  N         24.2300   22.9820    8.6760 N.3   233  MET233     -0.1230
     85  CA        25.3750   22.0740    8.6240 C.3   233  MET233      0.1702
     86  C         26.0070   22.0840    7.2520 C.2   233  MET233      0.2592
     87  O         27.2300   22.2080    7.1380 O.2   233  MET233     -0.2718
     88  CB        24.9580   20.6440    9.0050 C.3   233  MET233      0.0401
     89  CG        26.1150   19.6770    9.0010 C.3   233  MET233      0.0596
     90  SD        25.7430   17.9600    9.3230 S.3   233  MET233     -0.1393
     91  CE        25.2860   18.0410   11.0550 C.3   233  MET233      0.0692
     92  N         25.2090   21.9140    6.1950 N.am  234  ALA234     -0.1980
     93  CA        25.7530   21.7270    4.8380 C.3   234  ALA234      0.1597
     94  C         25.9320   23.0440    4.0760 C.2   234  ALA234      0.2287
     95  O         26.7030   23.0830    3.1130 O.2   234  ALA234     -0.2864
     96  CB        24.8870   20.7910    4.0340 C.3   234  ALA234      0.0319
     97  N         24.5190   25.8280   -0.6700 N.3   237  LYS237     -0.1245
     98  CA        24.7530   25.3730   -2.0270 C.3   237  LYS237      0.1561
     99  C         24.2790   23.9320   -2.2210 C.2   237  LYS237      0.2260
    100  O         24.3180   23.4260   -3.3340 O.2   237  LYS237     -0.2867
    101  CB        26.2390   25.4330   -2.3880 C.3   237  LYS237      0.0271
    102  CG        26.9910   26.7410   -2.2510 C.3   237  LYS237      0.0035
    103  CD        26.2740   27.8550   -2.9580 C.3   237  LYS237      0.0206
    104  CE        27.0810   29.1600   -2.9060 C.3   237  LYS237      0.1093
    105  NZ        26.3530   30.1710   -3.7210 N.3   237  LYS237     -0.1314
@<TRIPOS>BOND
     1   105   104    1
     2    82    80   ar
     3    82    83   ar
     4   100    99    2
     5    50    49    1
     6   103   104    1
     7   103   102    1
     8    80    77   ar
     9    83    81   ar
    10    51    49    1
    11   101   102    1
    12   101    98    1
    13    99    98    1
    14    49    48    2
    15    98    97    1
    16    77    79   ar
    17    77    75   ar
    18    81    79   ar
    19    48    47    1
    20    79    78   ar
    21    74    75    1
    22    74    71    1
    23    47    46    1
    24    73    72    2
    25    75    76   ar
    26    70    71    1
    27    71    72    1
    28    78    76   ar
    29    46    45    1
    30    45    42    1
    31    42    41    1
    32    42    43    1
    33    40    39    1
    34    44    43    2
    35    39    38    1
    36    95    94    2
    37    33    34    1
    38    96    93    1
    39    94    93    1
    40    38    37    1
    41    34    37    1
    42    34    35    1
    43    32    30    1
    44    31    30    1
    45    93    92    1
    46    30    27    1
    47    35    36    2
    48    92    86   am
    49    27    26    1
    50    27    28    1
    51    56    57    1
    52    56    53    1
    53    26    19   am
    54    28    29    2
    55    87    86    2
    56    86    85    1
    57    52    53    1
    58    23    24    1
    59    23    22    1
    60    53    54    1
    61    67    65   ar
    62    67    68   ar
    63    24    25    1
    64    19    18    1
    65    19    20    2
    66    65    63   ar
    67    21    18    1
    68    21    22    1
    69    69    68    1
    70    85    84    1
    71    85    88    1
    72    18    17    1
    73    68    66   ar
    74    89    88    1
    75    89    90    1
    76    54    55    2
    77    90    91    1
    78     9     8    2
    79    63    62    1
    80    63    64   ar
    81    62    59    1
    82    60    61    2
    83    60    59    1
    84    66    64   ar
    85    17     8   am
    86     8     7    1
    87     5     2    1
    88    59    58    1
    89     7     6    1
    90     7    10    1
    91     4     3    2
    92     2     3    1
    93     2     1    1
    94     6     3   am
    95    10    11    1
    96    11    12   ar
    97    11    13   ar
    98    12    14   ar
    99    13    15   ar
   100    14    16   ar
   101    15    16   ar
