@<TRIPOS>MOLECULE
tmp/1wmaA04.pdb
 93 89 0 0 0
SMALL
GASTEIGER

@<TRIPOS>ATOM
      1  N         19.4070    5.6260   22.4660 N.3   120  CYS120     -0.1221
      2  CA        18.8910    4.2830   22.1910 C.3   120  CYS120      0.1808
      3  C         18.9040    3.4070   23.4280 C.2   120  CYS120      0.2601
      4  O         17.9600    2.6430   23.6500 O.2   120  CYS120     -0.2717
      5  CB        19.7060    3.6380   21.0470 C.3   120  CYS120      0.0970
      6  SG        19.4600    4.4830   19.4730 S.3   120  CYS120     -0.0800
      7  N         19.9660    3.4800   24.2450 N.am  121  THR121     -0.1953
      8  CA        19.9980    2.6830   25.4650 C.3   121  THR121      0.1897
      9  C         18.7590    2.9470   26.3060 C.2   121  THR121      0.2313
     10  O         18.1480    2.0340   26.8260 O.2   121  THR121     -0.2863
     11  CB        21.2710    3.0080   26.2540 C.3   121  THR121      0.1794
     12  OG1       22.3680    2.5590   25.4640 O.3   121  THR121     -0.2208
     13  CG2       21.2930    2.3350   27.6410 C.3   121  THR121      0.0378
     14  N         15.1030    2.7350   23.2940 N.3   124  LEU124     -0.1231
     15  CA        14.7110    1.5030   22.6180 C.3   124  LEU124      0.1678
     16  C         13.8730    0.5930   23.5090 C.2   124  LEU124      0.2434
     17  O         12.9680   -0.0410   22.9280 O.2   124  LEU124     -0.2733
     18  CB        15.8900    0.7400   22.0120 C.3   124  LEU124      0.0284
     19  CG        16.5200    1.3950   20.8210 C.3   124  LEU124      0.0019
     20  CD1       17.5900    0.4650   20.2720 C.3   124  LEU124      0.0001
     21  CD2       15.5760    1.7910   19.7170 C.3   124  LEU124      0.0001
     22  N         14.1330    0.4610   24.7990 N.am  125  PRO125     -0.2729
     23  CA        13.2420   -0.4330   25.5870 C.3   125  PRO125      0.1401
     24  C         11.8230    0.0360   25.6640 C.2   125  PRO125      0.2269
     25  O         10.9780   -0.7510   26.0680 O.2   125  PRO125     -0.2865
     26  CB        13.9090   -0.4150   26.9510 C.3   125  PRO125      0.0296
     27  CG        15.3640   -0.1230   26.6810 C.3   125  PRO125      0.0237
     28  CD        15.2830    0.9030   25.5820 C.3   125  PRO125      0.0939
     29  N         27.6040   -4.3910   20.3410 N.3   163  GLU163     -0.1231
     30  CA        27.6370   -2.9520   20.6040 C.3   163  GLU163      0.1699
     31  C         28.8970   -2.5740   21.3630 C.2   163  GLU163      0.2592
     32  O         29.5000   -1.5230   21.0840 O.2   163  GLU163     -0.2718
     33  CB        26.3980   -2.5670   21.4010 C.3   163  GLU163      0.0402
     34  CG        26.3260   -1.0810   21.6900 C.3   163  GLU163      0.1161
     35  CD        25.0020   -0.6240   22.2610 C.2   163  GLU163      0.3649
     36  OE1       24.9800    0.3110   23.0150 O.co2 163  GLU163     -0.2457
     37  OE2       23.9480   -1.2080   21.9030 O.co2 163  GLU163     -0.2457
     38  N         29.3290   -3.4000   22.2870 N.am  164  GLU164     -0.1979
     39  CA        30.4860   -3.0670   23.1220 C.3   164  GLU164      0.1602
     40  C         31.7580   -3.1390   22.2810 C.2   164  GLU164      0.2287
     41  O         32.6980   -2.3340   22.4930 O.2   164  GLU164     -0.2864
     42  CB        30.5630   -4.0190   24.3280 C.3   164  GLU164      0.0415
     43  CG        29.3400   -3.8120   25.2590 C.3   164  GLU164      0.1163
     44  CD        28.0370   -4.4320   24.8120 C.2   164  GLU164      0.3649
     45  OE1       27.0030   -3.9870   25.3630 O.co2 164  GLU164     -0.2457
     46  OE2       28.0140   -5.3150   23.9410 O.co2 164  GLU164     -0.2457
     47  N         21.5590   -3.0710   16.3910 N.3   206  HIS206     -0.1241
     48  CA        20.2660   -2.9400   17.0470 C.3   206  HIS206      0.1621
     49  C         19.1700   -3.6470   16.3010 C.2   206  HIS206      0.2264
     50  O         18.2530   -4.2270   16.9110 O.2   206  HIS206     -0.2867
     51  CB        19.9310   -1.4430   17.2540 C.3   206  HIS206      0.0745
     52  CG        20.7650   -0.8150   18.3210 C.ar  206  HIS206      0.0817
     53  ND1       20.7380    0.5260   18.5590 N.ar  206  HIS206     -0.2268
     54  CD2       21.6190   -1.3790   19.2200 C.ar  206  HIS206      0.1154
     55  CE1       21.5450    0.7880   19.5890 C.ar  206  HIS206      0.1986
     56  NE2       22.0860   -0.3420   19.9870 N.ar  206  HIS206     -0.2212
     57  N         19.4740   -7.3750   17.1450 N.3   209  LYS209     -0.1231
     58  CA        18.9230   -7.7170   18.4700 C.3   209  LYS209      0.1693
     59  C         17.4060   -7.6730   18.4640 C.2   209  LYS209      0.2591
     60  O         16.7240   -8.4990   19.0780 O.2   209  LYS209     -0.2718
     61  CB        19.4640   -6.7460   19.5070 C.3   209  LYS209      0.0285
     62  CG        20.9800   -6.7830   19.6320 C.3   209  LYS209      0.0035
     63  CD        21.4240   -5.9460   20.8170 C.3   209  LYS209      0.0206
     64  CE        22.8810   -6.2830   21.1950 C.3   209  LYS209      0.1093
     65  NZ        23.0150   -5.7760   22.6280 N.3   209  LYS209     -0.1314
     66  N         16.8130   -6.6940   17.7510 N.am  210  LEU210     -0.1980
     67  CA        15.3560   -6.7210   17.6300 C.3   210  LEU210      0.1596
     68  C         14.8780   -8.0330   17.0290 C.2   210  LEU210      0.2287
     69  O         13.8920   -8.5680   17.5710 O.2   210  LEU210     -0.2864
     70  CB        14.8680   -5.5450   16.7730 C.3   210  LEU210      0.0297
     71  CG        14.8760   -4.1820   17.4970 C.3   210  LEU210      0.0022
     72  CD1       14.7360   -3.0590   16.4820 C.3   210  LEU210      0.0001
     73  CD2       13.7770   -4.0650   18.5450 C.3   210  LEU210      0.0001
     74  N         15.6440  -10.7990   19.7820 N.3   213  GLN213     -0.1231
     75  CA        15.0540  -10.6490   21.0980 C.3   213  GLN213      0.1698
     76  C         13.5900  -10.2220   21.1000 C.2   213  GLN213      0.2592
     77  O         12.9380  -10.3650   22.1410 O.2   213  GLN213     -0.2718
     78  CB        15.8920   -9.6220   21.8680 C.3   213  GLN213      0.0381
     79  CG        17.3060  -10.0550   22.1610 C.3   213  GLN213      0.0905
     80  CD        18.0710   -9.0960   23.0560 C.2   213  GLN213      0.2608
     81  OE1       17.5590   -8.4620   23.9880 O.2   213  GLN213     -0.2717
     82  NE2       19.3820   -8.9520   22.8330 N.am  213  GLN213     -0.0878
     83  N         13.0700   -9.7150   20.0000 N.am  214  ARG214     -0.1980
     84  CA        11.6840   -9.2350   19.9060 C.3   214  ARG214      0.1597
     85  C         11.0330   -9.7430   18.6420 C.2   214  ARG214      0.2287
     86  O         10.3230   -9.0200   17.9740 O.2   214  ARG214     -0.2864
     87  CB        11.6380   -7.6980   19.9830 C.3   214  ARG214      0.0334
     88  CG        12.1340   -7.1740   21.3240 C.3   214  ARG214      0.0492
     89  CD        11.8490   -5.6870   21.4570 C.3   214  ARG214      0.2205
     90  NE        10.4180   -5.4300   21.5860 N.pl3 214  ARG214     -0.0865
     91  CZ         9.9000   -4.2510   21.8850 C.cat 214  ARG214      0.5346
     92  NH1       10.7090   -3.2200   22.0770 N.pl3 214  ARG214      0.1354
     93  NH2        8.5910   -4.0470   21.9930 N.pl3 214  ARG214      0.1354
@<TRIPOS>BOND
     1    49    50    2
     2    49    48    1
     3    47    48    1
     4    72    71    1
     5    70    71    1
     6    70    67    1
     7    68    69    2
     8    68    67    1
     9    48    51    1
    10    57    58    1
    11    51    52    1
    12    71    73    1
    13    67    66    1
    14    66    59   am
    15    86    85    2
    16    52    53   ar
    17    52    54   ar
    18    59    58    1
    19    59    60    2
    20    58    61    1
    21    53    55   ar
    22    85    84    1
    23    54    56   ar
    24     6     5    1
    25    61    62    1
    26    55    56   ar
    27    62    63    1
    28    21    19    1
    29    74    75    1
    30    84    87    1
    31    84    83    1
    32    87    88    1
    33    83    76   am
    34    20    19    1
    35    29    30    1
    36    30    31    1
    37    30    33    1
    38    63    64    1
    39    19    18    1
    40     5     2    1
    41    32    31    2
    42    75    76    1
    43    75    78    1
    44    76    77    2
    45    64    65    1
    46    88    89    1
    47    31    38   am
    48    33    34    1
    49    89    90    1
    50    90    91    2
    51    34    35    1
    52    78    79    1
    53    91    93    1
    54    91    92    1
    55    37    35   ar
    56    18    15    1
    57    79    80    1
    58     2     1    1
    59     2     3    1
    60    35    36   ar
    61    40    41    2
    62    40    39    1
    63    38    39    1
    64    15    14    1
    65    15    16    1
    66    82    80   am
    67    17    16    2
    68    80    81    2
    69    39    42    1
    70     3     4    2
    71     3     7   am
    72    16    22   am
    73    46    44   ar
    74     7     8    1
    75    42    43    1
    76    22    28    1
    77    22    23    1
    78    44    43    1
    79    44    45   ar
    80    12    11    1
    81     8    11    1
    82     8     9    1
    83    28    27    1
    84    23    24    1
    85    23    26    1
    86    24    25    2
    87    11    13    1
    88     9    10    2
    89    27    26    1
