@<TRIPOS>MOLECULE
tmp/1wmaA00.pdb
 82 79 0 0 0
SMALL
GASTEIGER

@<TRIPOS>ATOM
      1  N         28.8040   18.5400   12.7850 N.3    92  ALA92      -0.1245
      2  CA        29.9480   18.4190   11.9090 C.3    92  ALA92       0.1562
      3  C         30.7480   19.7170   11.9280 C.2    92  ALA92       0.2260
      4  O         30.1800   20.7980   11.8970 O.2    92  ALA92      -0.2867
      5  CB        29.5420   18.1830   10.4700 C.3    92  ALA92       0.0290
      6  N         22.0810    8.7040    9.4750 N.3   137  SER137     -0.1202
      7  CA        23.5230    8.5370    9.3110 C.3   137  SER137      0.2020
      8  C         23.9900    9.4730    8.2290 C.2   137  SER137      0.2619
      9  O         23.6080   10.6590    8.2770 O.2   137  SER137     -0.2717
     10  CB        23.8070    7.0670    9.0770 C.3   137  SER137      0.2103
     11  OG        25.2260    6.8780    9.0010 O.3   137  SER137     -0.2182
     12  N         24.7620    8.9980    7.2820 N.am  138  SER138     -0.1937
     13  CA        25.1540    9.7670    6.1090 C.3   138  SER138      0.2055
     14  C         25.7300    8.8220    5.1060 C.2   138  SER138      0.2643
     15  O         26.3730    7.8350    5.4680 O.2   138  SER138     -0.2714
     16  CB        26.2410   10.7980    6.4710 C.3   138  SER138      0.2130
     17  OG        26.6830   11.4820    5.3160 O.3   138  SER138     -0.2179
     18  N         25.6040    9.1740    3.8050 N.am  139  ILE139     -0.1963
     19  CA        26.3410    8.4580    2.7740 C.3   139  ILE139      0.1727
     20  C         27.8350    8.5700    3.0300 C.2   139  ILE139      0.2616
     21  O         28.6130    7.7330    2.5690 O.2   139  ILE139     -0.2715
     22  CB        25.9540    8.9740    1.3730 C.3   139  ILE139      0.0290
     23  CG1       26.4150    8.0140    0.2760 C.3   139  ILE139      0.0022
     24  CG2       26.4640   10.3630    1.1640 C.3   139  ILE139      0.0023
     25  CD1       25.6870    6.6770    0.2970 C.3   139  ILE139      0.0001
     26  N         28.2950    9.5590    3.7970 N.am  140  MET140     -0.1977
     27  CA        29.6920    9.6410    4.1940 C.3   140  MET140      0.1605
     28  C         30.1380    8.4170    4.9720 C.2   140  MET140      0.2287
     29  O         31.3520    8.1480    4.9920 O.2   140  MET140     -0.2864
     30  CB        29.9510   10.9330    4.9580 C.3   140  MET140      0.0413
     31  CG        29.7490   12.1780    4.1160 C.3   140  MET140      0.0598
     32  SD        30.8440   12.2640    2.7080 S.3   140  MET140     -0.1393
     33  CE        29.9990   13.4930    1.7400 C.3   140  MET140      0.0692
     34  N         34.1640   12.9730   10.8190 N.3   192  TYR192     -0.1241
     35  CA        32.7280   12.8860   10.7050 C.3   192  TYR192      0.1605
     36  C         32.3270   11.5600   10.0710 C.2   192  TYR192      0.2264
     37  O         31.3740   10.9030   10.5030 O.2   192  TYR192     -0.2867
     38  CB        32.1930   14.0590    9.9250 C.3   192  TYR192      0.0534
     39  CG        30.7360   14.0280    9.5690 C.ar  192  TYR192     -0.0201
     40  CD1       29.7640   14.5630   10.4080 C.ar  192  TYR192     -0.0009
     41  CD2       30.2880   13.4780    8.3700 C.ar  192  TYR192     -0.0009
     42  CE1       28.4340   14.5410   10.0870 C.ar  192  TYR192      0.0417
     43  CE2       28.9480   13.4670    8.0410 C.ar  192  TYR192      0.0417
     44  CZ        28.0140   14.0140    8.9140 C.ar  192  TYR192      0.1957
     45  OH        26.6690   14.0320    8.5680 O.3   192  TYR192     -0.2866
     46  N         20.5220    8.0020    4.7930 N.3   225  CYS225     -0.1235
     47  CA        21.0830    9.2850    4.3790 C.3   225  CYS225      0.1677
     48  C         19.9420   10.1040    3.7960 C.2   225  CYS225      0.2270
     49  O         19.1850    9.6140    2.9780 O.2   225  CYS225     -0.2867
     50  CB        22.2060    9.2520    3.3590 C.3   225  CYS225      0.0956
     51  SG        23.0650   10.9000    2.9770 S.3   225  CYS225     -0.0801
     52  N         20.4160   12.6640    1.9040 N.3   227  GLY227     -0.1210
     53  CA        20.9780   13.3720    0.7480 C.3   227  GLY227      0.1956
     54  C         21.6460   14.6510    1.1910 C.2   227  GLY227      0.2611
     55  O         21.8310   14.9120    2.3790 O.2   227  GLY227     -0.2717
     56  N         22.0750   15.4660    0.2390 N.am  228  TRP228     -0.1976
     57  CA        22.7830   16.7270    0.4930 C.3   228  TRP228      0.1640
     58  C         21.7710   17.8560    0.6140 C.2   228  TRP228      0.2290
     59  O         21.1150   18.1970   -0.3880 O.2   228  TRP228     -0.2864
     60  CB        23.7770   16.9650   -0.6220 C.3   228  TRP228      0.0576
     61  CG        24.7500   18.0650   -0.3350 C.ar  228  TRP228      0.0006
     62  CD1       25.2610   18.4580    0.8510 C.ar  228  TRP228      0.0946
     63  CD2       25.3680   18.9180   -1.3300 C.ar  228  TRP228      0.0152
     64  NE1       26.1370   19.4990    0.6880 N.ar  228  TRP228     -0.2442
     65  CE2       26.2220   19.8020   -0.6320 C.ar  228  TRP228      0.0810
     66  CE3       25.2870   19.0190   -2.7100 C.ar  228  TRP228      0.0012
     67  CZ2       26.9820   20.7820   -1.2720 C.ar  228  TRP228      0.0191
     68  CZ3       26.0370   19.9940   -3.3430 C.ar  228  TRP228      0.0001
     69  CH2       26.8690   20.8580   -2.6360 C.ar  228  TRP228      0.0015
     70  N         24.2300   22.9820    8.6760 N.3   233  MET233     -0.1230
     71  CA        25.3750   22.0740    8.6240 C.3   233  MET233      0.1702
     72  C         26.0070   22.0840    7.2520 C.2   233  MET233      0.2592
     73  O         27.2300   22.2080    7.1380 O.2   233  MET233     -0.2718
     74  CB        24.9580   20.6440    9.0050 C.3   233  MET233      0.0401
     75  CG        26.1150   19.6770    9.0010 C.3   233  MET233      0.0596
     76  SD        25.7430   17.9600    9.3230 S.3   233  MET233     -0.1393
     77  CE        25.2860   18.0410   11.0550 C.3   233  MET233      0.0692
     78  N         25.2090   21.9140    6.1950 N.am  234  ALA234     -0.1980
     79  CA        25.7530   21.7270    4.8380 C.3   234  ALA234      0.1597
     80  C         25.9320   23.0440    4.0760 C.2   234  ALA234      0.2287
     81  O         26.7030   23.0830    3.1130 O.2   234  ALA234     -0.2864
     82  CB        24.8870   20.7910    4.0340 C.3   234  ALA234      0.0319
@<TRIPOS>BOND
     1    68    66   ar
     2    68    69   ar
     3    66    63   ar
     4    69    67   ar
     5    63    65   ar
     6    63    61   ar
     7    67    65   ar
     8    65    64   ar
     9    60    61    1
    10    60    57    1
    11    59    58    2
    12    61    62   ar
    13    56    57    1
    14    56    54   am
    15    23    25    1
    16    23    22    1
    17    57    58    1
    18    64    62   ar
    19    53    54    1
    20    53    52    1
    21    24    22    1
    22    54    55    2
    23    22    19    1
    24    33    32    1
    25    21    20    2
    26    32    31    1
    27    19    20    1
    28    19    18    1
    29    51    50    1
    30    49    48    2
    31    20    26   am
    32    81    80    2
    33    50    47    1
    34    48    47    1
    35    26    27    1
    36    18    14   am
    37    82    79    1
    38    80    79    1
    39    31    30    1
    40    27    30    1
    41    27    28    1
    42    47    46    1
    43    79    78    1
    44    28    29    2
    45    14    15    2
    46    14    13    1
    47    17    16    1
    48    13    16    1
    49    13    12    1
    50    78    72   am
    51    73    72    2
    52    72    71    1
    53    12     8   am
    54    43    41   ar
    55    43    44   ar
    56     8     9    2
    57     8     7    1
    58    41    39   ar
    59    45    44    1
    60    71    70    1
    61    71    74    1
    62    44    42   ar
    63    75    74    1
    64    75    76    1
    65    11    10    1
    66    10     7    1
    67     7     6    1
    68    76    77    1
    69    39    38    1
    70    39    40   ar
    71    38    35    1
    72    36    37    2
    73    36    35    1
    74    42    40   ar
    75     5     2    1
    76    35    34    1
    77     4     3    2
    78     2     3    1
    79     2     1    1
