@<TRIPOS>MOLECULE
tmp/1wmuA00.pdb
 228 217 0 0 0
SMALL
GASTEIGER

@<TRIPOS>ATOM
      1  N         70.4010  -31.9620   15.8540 N.3    29  LEU29      -0.1245
      2  CA        69.2810  -31.3920   16.6050 C.3    29  LEU29       0.1561
      3  C         69.4600  -29.9070   16.8790 C.2    29  LEU29       0.2260
      4  O         68.5220  -29.1230   16.7320 O.2    29  LEU29      -0.2867
      5  CB        69.1010  -32.1240   17.9390 C.3    29  LEU29       0.0270
      6  CG        68.5250  -33.5390   17.9000 C.3    29  LEU29       0.0019
      7  CD1       68.6360  -34.1580   19.2890 C.3    29  LEU29       0.0001
      8  CD2       67.0640  -33.5100   17.4340 C.3    29  LEU29       0.0001
      9  N         68.8670  -27.8200   13.8500 N.3    32  MET32      -0.1245
     10  CA        67.4300  -27.7180   13.5820 C.3    32  MET32       0.1570
     11  C         66.7860  -26.6790   14.5060 C.2    32  MET32       0.2261
     12  O         66.0220  -25.8250   14.0570 O.2    32  MET32      -0.2867
     13  CB        66.7340  -29.0730   13.7710 C.3    32  MET32       0.0387
     14  CG        65.2320  -29.0480   13.4400 C.3    32  MET32       0.0595
     15  SD        64.3670  -30.6210   13.6520 S.3    32  MET32      -0.1393
     16  CE        64.4230  -30.7890   15.4300 C.3    32  MET32       0.0692
     17  N         60.6710  -25.7140   15.5270 N.3    39  THR39      -0.1218
     18  CA        60.8010  -27.1060   15.9540 C.3    39  THR39       0.1862
     19  C         61.0660  -27.2700   17.4530 C.2    39  THR39       0.2287
     20  O         60.8400  -28.3420   18.0140 O.2    39  THR39      -0.2866
     21  CB        61.9190  -27.8390   15.1670 C.3    39  THR39       0.1770
     22  OG1       63.1880  -27.2210   15.4250 O.3    39  THR39      -0.2211
     23  CG2       61.6290  -27.7860   13.6750 C.3    39  THR39       0.0375
     24  N         58.4560  -28.6850   20.2080 N.3    42  TYR42      -0.1227
     25  CA        58.1920  -30.1070   20.3960 C.3    42  TYR42       0.1736
     26  C         58.9790  -30.5950   21.6080 C.2    42  TYR42       0.2595
     27  O         58.7460  -31.6970   22.1040 O.2    42  TYR42      -0.2718
     28  CB        58.6550  -30.8990   19.1740 C.3    42  TYR42       0.0548
     29  CG        57.7170  -30.8380   17.9960 C.ar   42  TYR42      -0.0200
     30  CD1       56.6810  -31.7580   17.8670 C.ar   42  TYR42      -0.0009
     31  CD2       57.8720  -29.8700   17.0030 C.ar   42  TYR42      -0.0009
     32  CE1       55.8190  -31.7240   16.7720 C.ar   42  TYR42       0.0417
     33  CE2       57.0130  -29.8290   15.9010 C.ar   42  TYR42       0.0417
     34  CZ        55.9930  -30.7650   15.7960 C.ar   42  TYR42       0.1957
     35  OH        55.1570  -30.7700   14.7000 O.3    42  TYR42      -0.2866
     36  N         59.9140  -29.7700   22.0720 N.am   43  PHE43      -0.1976
     37  CA        60.7660  -30.1340   23.2050 C.3    43  PHE43       0.1639
     38  C         60.7170  -29.1540   24.3760 C.2    43  PHE43       0.2290
     39  O         61.7550  -28.7430   24.8900 O.2    43  PHE43      -0.2864
     40  CB        62.2220  -30.2640   22.7440 C.3    43  PHE43       0.0560
     41  CG        62.4440  -31.3130   21.6860 C.ar   43  PHE43      -0.0200
     42  CD1       62.1890  -31.0370   20.3480 C.ar   43  PHE43      -0.0042
     43  CD2       62.9250  -32.5720   22.0310 C.ar   43  PHE43      -0.0042
     44  CE1       62.4120  -31.9970   19.3680 C.ar   43  PHE43      -0.0003
     45  CE2       63.1520  -33.5420   21.0590 C.ar   43  PHE43      -0.0003
     46  CZ        62.8950  -33.2550   19.7230 C.ar   43  PHE43      -0.0000
     47  N         60.0000  -29.7400   27.3450 N.3    45  HIS45      -0.1226
     48  CA        60.5200  -30.4180   28.5270 C.3    45  HIS45       0.1752
     49  C         62.0450  -30.5210   28.5460 C.2    45  HIS45       0.2596
     50  O         62.6310  -30.9420   29.5480 O.2    45  HIS45      -0.2718
     51  CB        59.9050  -31.8170   28.6360 C.3    45  HIS45       0.0759
     52  CG        60.0530  -32.6470   27.3960 C.ar   45  HIS45       0.0818
     53  ND1       59.5960  -32.2330   26.1620 N.ar   45  HIS45      -0.2268
     54  CD2       60.5580  -33.8890   27.2140 C.ar   45  HIS45       0.1154
     55  CE1       59.8090  -33.1890   25.2750 C.ar   45  HIS45       0.1986
     56  NE2       60.3900  -34.2050   25.8870 N.ar   45  HIS45      -0.2212
     57  N         62.6820  -30.1350   27.4410 N.am   46  PHE46      -0.1976
     58  CA        64.1410  -30.1810   27.3140 C.3    46  PHE46       0.1639
     59  C         64.8330  -28.8620   27.6250 C.2    46  PHE46       0.2290
     60  O         64.3160  -27.7860   27.3240 O.2    46  PHE46      -0.2864
     61  CB        64.5520  -30.5190   25.8750 C.3    46  PHE46       0.0560
     62  CG        64.6370  -31.9810   25.5680 C.ar   46  PHE46      -0.0200
     63  CD1       63.7900  -32.8970   26.1740 C.ar   46  PHE46      -0.0042
     64  CD2       65.5300  -32.4330   24.5990 C.ar   46  PHE46      -0.0042
     65  CE1       63.8270  -34.2440   25.8170 C.ar   46  PHE46      -0.0003
     66  CE2       65.5730  -33.7730   24.2340 C.ar   46  PHE46      -0.0003
     67  CZ        64.7180  -34.6820   24.8450 C.ar   46  PHE46      -0.0000
     68  N         69.3380  -37.5510   23.6640 N.3    58  HIS58      -0.1241
     69  CA        68.3320  -37.7210   22.6220 C.3    58  HIS58       0.1621
     70  C         69.0290  -37.8110   21.2620 C.2    58  HIS58       0.2264
     71  O         68.6180  -38.5790   20.3890 O.2    58  HIS58      -0.2867
     72  CB        67.3520  -36.5460   22.6150 C.3    58  HIS58       0.0745
     73  CG        66.2490  -36.7060   21.6190 C.ar   58  HIS58       0.0817
     74  ND1       65.4400  -37.8210   21.5880 N.ar   58  HIS58      -0.2268
     75  CD2       65.8560  -35.9230   20.5860 C.ar   58  HIS58       0.1154
     76  CE1       64.5980  -37.7190   20.5750 C.ar   58  HIS58       0.1986
     77  NE2       64.8280  -36.5780   19.9520 N.ar   58  HIS58      -0.2212
     78  N         70.0030  -41.2080   20.7200 N.3    61  LYS61      -0.1231
     79  CA        68.8550  -42.0590   20.4230 C.3    61  LYS61       0.1693
     80  C         68.4280  -41.9150   18.9650 C.2    61  LYS61       0.2591
     81  O         68.1000  -42.9010   18.3050 O.2    61  LYS61      -0.2718
     82  CB        67.6760  -41.7030   21.3350 C.3    61  LYS61       0.0285
     83  CG        67.8620  -42.1030   22.7940 C.3    61  LYS61       0.0035
     84  CD        67.6400  -43.5950   22.9800 C.3    61  LYS61       0.0206
     85  CE        67.6670  -43.9900   24.4490 C.3    61  LYS61       0.1093
     86  NZ        67.3860  -45.4460   24.6170 N.3    61  LYS61      -0.1314
     87  N         68.4200  -40.6830   18.4680 N.am   62  VAL62      -0.1980
     88  CA        68.0290  -40.4500   17.0820 C.3    62  VAL62       0.1595
     89  C         68.9910  -41.1830   16.1470 C.2    62  VAL62       0.2287
     90  O         68.5630  -41.8860   15.2270 O.2    62  VAL62      -0.2864
     91  CB        68.0260  -38.9420   16.7510 C.3    62  VAL62       0.0276
     92  CG1       67.7440  -38.7250   15.2600 C.3    62  VAL62       0.0022
     93  CG2       66.9630  -38.2490   17.5920 C.3    62  VAL62       0.0022
     94  N         68.4990  -44.9260   16.1640 N.3    65  ALA65      -0.1231
     95  CA        67.3440  -45.3420   15.3710 C.3    65  ALA65       0.1694
     96  C         67.6800  -45.3340   13.8820 C.2    65  ALA65       0.2591
     97  O         67.2540  -46.2170   13.1380 O.2    65  ALA65      -0.2718
     98  CB        66.1540  -44.4240   15.6430 C.3    65  ALA65       0.0304
     99  N         68.4300  -44.3280   13.4450 N.am   66  LEU66      -0.1980
    100  CA        68.8220  -44.2470   12.0420 C.3    66  LEU66       0.1596
    101  C         69.7550  -45.4170   11.7410 C.2    66  LEU66       0.2287
    102  O         69.7370  -45.9680   10.6420 O.2    66  LEU66      -0.2864
    103  CB        69.5230  -42.9160   11.7520 C.3    66  LEU66       0.0297
    104  CG        68.6060  -41.6840   11.7300 C.3    66  LEU66       0.0022
    105  CD1       69.4370  -40.4270   11.5030 C.3    66  LEU66       0.0001
    106  CD2       67.5720  -41.8300   10.6170 C.3    66  LEU66       0.0001
    107  N         60.6330  -49.6570   12.1480 N.3    80  LEU80      -0.1245
    108  CA        60.3440  -48.3810   12.8000 C.3    80  LEU80       0.1561
    109  C         58.8860  -48.2220   13.2110 C.2    80  LEU80       0.2260
    110  O         58.4480  -47.1180   13.5350 O.2    80  LEU80      -0.2867
    111  CB        60.7300  -47.2330   11.8680 C.3    80  LEU80       0.0270
    112  CG        62.1990  -47.1740   11.4480 C.3    80  LEU80       0.0019
    113  CD1       62.3740  -46.1370   10.3510 C.3    80  LEU80       0.0001
    114  CD2       63.0640  -46.8390   12.6510 C.3    80  LEU80       0.0001
    115  N         58.2750  -46.4300   16.4600 N.3    83  LEU83      -0.1245
    116  CA        58.6170  -45.0190   16.3310 C.3    83  LEU83       0.1561
    117  C         57.6330  -44.2580   15.4540 C.2    83  LEU83       0.2260
    118  O         57.3860  -43.0720   15.6810 O.2    83  LEU83      -0.2867
    119  CB        60.0390  -44.8630   15.7790 C.3    83  LEU83       0.0270
    120  CG        61.1360  -45.2710   16.7660 C.3    83  LEU83       0.0019
    121  CD1       62.5080  -45.1550   16.1130 C.3    83  LEU83       0.0001
    122  CD2       61.0460  -44.3960   18.0030 C.3    83  LEU83       0.0001
    123  N         54.7260  -43.5320   17.5780 N.3    86  LEU86      -0.1231
    124  CA        55.0970  -42.4940   18.5280 C.3    86  LEU86       0.1693
    125  C         55.0370  -41.0950   17.9160 C.2    86  LEU86       0.2592
    126  O         54.4090  -40.1850   18.4650 O.2    86  LEU86      -0.2718
    127  CB        56.5140  -42.7350   19.0510 C.3    86  LEU86       0.0284
    128  CG        57.0180  -41.7090   20.0690 C.3    86  LEU86       0.0019
    129  CD1       56.3340  -41.9430   21.4110 C.3    86  LEU86       0.0001
    130  CD2       58.5200  -41.8310   20.2180 C.3    86  LEU86       0.0001
    131  N         55.6920  -40.9210   16.7760 N.am   87  HIS87      -0.1976
    132  CA        55.7230  -39.6070   16.1530 C.3    87  HIS87       0.1656
    133  C         54.3970  -39.1250   15.5950 C.2    87  HIS87       0.2291
    134  O         54.1340  -37.9250   15.5960 O.2    87  HIS87      -0.2864
    135  CB        56.8080  -39.5530   15.0760 C.3    87  HIS87       0.0771
    136  CG        58.1960  -39.5540   15.6340 C.ar   87  HIS87       0.0820
    137  ND1       58.8040  -40.6980   16.1050 N.ar   87  HIS87      -0.2267
    138  CD2       59.0700  -38.5430   15.8570 C.ar   87  HIS87       0.1154
    139  CE1       59.9920  -40.3910   16.5950 C.ar   87  HIS87       0.1986
    140  NE2       60.1780  -39.0900   16.4590 N.ar   87  HIS87      -0.2212
    141  N         53.2630  -37.6980   19.4890 N.3    91  LEU91      -0.1245
    142  CA        53.9010  -36.4110   19.2490 C.3    91  LEU91       0.1561
    143  C         53.2550  -35.5250   18.1860 C.2    91  LEU91       0.2260
    144  O         53.4650  -34.3100   18.1880 O.2    91  LEU91      -0.2867
    145  CB        55.3680  -36.6530   18.8970 C.3    91  LEU91       0.0270
    146  CG        56.1470  -37.4910   19.9210 C.3    91  LEU91       0.0019
    147  CD1       57.4820  -37.9150   19.3310 C.3    91  LEU91       0.0001
    148  CD2       56.3510  -36.6940   21.2060 C.3    91  LEU91       0.0001
    149  N         53.9520  -35.0820   15.0930 N.3    93  VAL93      -0.1245
    150  CA        54.9600  -34.3130   14.3840 C.3    93  VAL93       0.1561
    151  C         54.5280  -33.9790   12.9540 C.2    93  VAL93       0.2260
    152  O         54.1070  -34.8500   12.1900 O.2    93  VAL93      -0.2867
    153  CB        56.3130  -35.0590   14.3630 C.3    93  VAL93       0.0252
    154  CG1       57.3290  -34.2850   13.5620 C.3    93  VAL93       0.0019
    155  CG2       56.8240  -35.2380   15.7940 C.3    93  VAL93       0.0019
    156  N         58.6260  -31.2320    9.2990 N.3    97  ASN97      -0.1225
    157  CA        59.7680  -31.2720   10.1970 C.3    97  ASN97       0.1785
    158  C         60.7150  -32.4430   10.0010 C.2    97  ASN97       0.2597
    159  O         61.8960  -32.3440   10.3370 O.2    97  ASN97      -0.2718
    160  CB        59.2830  -31.1920   11.6390 C.3    97  ASN97       0.1169
    161  CG        58.5950  -29.8770   11.9210 C.2    97  ASN97       0.2627
    162  OD1       59.0490  -28.8270   11.4610 O.2    97  ASN97      -0.2716
    163  ND2       57.5040  -29.9190   12.6720 N.am   97  ASN97      -0.0877
    164  N         60.2120  -33.5510    9.4710 N.am   98  PHE98      -0.1976
    165  CA        61.0860  -34.6860    9.2110 C.3    98  PHE98       0.1639
    166  C         62.0760  -34.2460    8.1380 C.2    98  PHE98       0.2290
    167  O         63.2560  -34.6070    8.1780 O.2    98  PHE98      -0.2864
    168  CB        60.2870  -35.9000    8.7300 C.3    98  PHE98       0.0560
    169  CG        59.4270  -36.5130    9.7910 C.ar   98  PHE98      -0.0200
    170  CD1       59.9770  -36.9250   11.0020 C.ar   98  PHE98      -0.0042
    171  CD2       58.0620  -36.6780    9.5850 C.ar   98  PHE98      -0.0042
    172  CE1       59.1790  -37.4880   11.9940 C.ar   98  PHE98      -0.0003
    173  CE2       57.2570  -37.2420   10.5710 C.ar   98  PHE98      -0.0003
    174  CZ        57.8150  -37.6460   11.7760 C.ar   98  PHE98      -0.0000
    175  N         64.8010  -31.9630    9.8030 N.3   101  LEU101     -0.1231
    176  CA        65.8290  -32.6980   10.5400 C.3   101  LEU101      0.1693
    177  C         66.7150  -33.4660    9.5640 C.2   101  LEU101      0.2592
    178  O         67.9320  -33.5320    9.7430 O.2   101  LEU101     -0.2718
    179  CB        65.2000  -33.6600   11.5570 C.3   101  LEU101      0.0284
    180  CG        66.2160  -34.4460   12.4040 C.3   101  LEU101      0.0019
    181  CD1       67.1950  -33.4840   13.0770 C.3   101  LEU101      0.0001
    182  CD2       65.4830  -35.2800   13.4420 C.3   101  LEU101      0.0001
    183  N         66.1040  -34.0360    8.5250 N.am  102  SER102     -0.1952
    184  CA        66.8620  -34.7690    7.5130 C.3   102  SER102      0.1924
    185  C         67.8880  -33.8330    6.8830 C.2   102  SER102      0.2314
    186  O         69.0520  -34.1910    6.7150 O.2   102  SER102     -0.2863
    187  CB        65.9240  -35.3110    6.4270 C.3   102  SER102      0.2116
    188  OG        65.1340  -36.3790    6.9290 O.3   102  SER102     -0.2180
    189  N         70.6700  -33.0610    9.2540 N.3   105  PHE105     -0.1241
    190  CA        71.5680  -34.1910    9.4120 C.3   105  PHE105      0.1605
    191  C         72.5420  -34.1770    8.2350 C.2   105  PHE105      0.2264
    192  O         73.7330  -34.4330    8.4040 O.2   105  PHE105     -0.2867
    193  CB        70.7970  -35.5070    9.4350 C.3   105  PHE105      0.0534
    194  CG        71.6020  -36.6600    9.9480 C.ar  105  PHE105     -0.0203
    195  CD1       71.8840  -36.7800   11.3090 C.ar  105  PHE105     -0.0042
    196  CD2       72.1150  -37.6080    9.0710 C.ar  105  PHE105     -0.0042
    197  CE1       72.6700  -37.8310   11.7870 C.ar  105  PHE105     -0.0003
    198  CE2       72.9040  -38.6640    9.5380 C.ar  105  PHE105     -0.0003
    199  CZ        73.1820  -38.7740   10.8960 C.ar  105  PHE105     -0.0000
    200  N         67.1910  -40.9230    4.0100 N.3   129  LEU129     -0.1245
    201  CA        66.4850  -40.0860    4.9700 C.3   129  LEU129      0.1561
    202  C         65.0350  -39.8470    4.5590 C.2   129  LEU129      0.2260
    203  O         64.1490  -39.7520    5.4110 O.2   129  LEU129     -0.2867
    204  CB        67.2340  -38.7610    5.1440 C.3   129  LEU129      0.0270
    205  CG        68.6080  -38.9270    5.8050 C.3   129  LEU129      0.0019
    206  CD1       69.3920  -37.6210    5.7500 C.3   129  LEU129      0.0001
    207  CD2       68.4090  -39.3750    7.2510 C.3   129  LEU129      0.0001
    208  N         63.1020  -43.0330    5.4580 N.3   132  VAL132     -0.1231
    209  CA        62.8710  -43.0960    6.8940 C.3   132  VAL132      0.1692
    210  C         61.7540  -42.1260    7.2720 C.2   132  VAL132      0.2592
    211  O         60.8650  -42.4660    8.0540 O.2   132  VAL132     -0.2718
    212  CB        64.1440  -42.7240    7.6820 C.3   132  VAL132      0.0266
    213  CG1       63.8190  -42.5850    9.1610 C.3   132  VAL132      0.0020
    214  CG2       65.2120  -43.7950    7.4800 C.3   132  VAL132      0.0020
    215  N         61.7980  -40.9240    6.7030 N.am  133  SER133     -0.1952
    216  CA        60.7930  -39.9030    6.9870 C.3   133  SER133      0.1924
    217  C         59.3980  -40.3490    6.5610 C.2   133  SER133      0.2314
    218  O         58.4220  -40.1250    7.2800 O.2   133  SER133     -0.2863
    219  CB        61.1540  -38.5920    6.2850 C.3   133  SER133      0.2116
    220  OG        62.3550  -38.0420    6.8070 O.3   133  SER133     -0.2180
    221  N         58.1330  -42.7520    9.2060 N.3   136  LEU136     -0.1245
    222  CA        57.7810  -42.1130   10.4660 C.3   136  LEU136      0.1561
    223  C         56.4850  -41.3170   10.3720 C.2   136  LEU136      0.2260
    224  O         55.9060  -40.9480   11.3950 O.2   136  LEU136     -0.2867
    225  CB        58.9190  -41.2060   10.9380 C.3   136  LEU136      0.0270
    226  CG        60.1760  -41.9710   11.3570 C.3   136  LEU136      0.0019
    227  CD1       61.2490  -40.9750   11.7450 C.3   136  LEU136      0.0001
    228  CD2       59.8710  -42.8940   12.5280 C.3   136  LEU136      0.0001
@<TRIPOS>BOND
     1   200   201    1
     2   202   201    1
     3   202   203    2
     4   201   204    1
     5   204   205    1
     6   208   209    1
     7   206   205    1
     8   205   207    1
     9   219   220    1
    10   219   216    1
    11   187   188    1
    12   187   184    1
    13   217   216    1
    14   217   218    2
    15   215   216    1
    16   215   210   am
    17   186   185    2
    18   185   184    1
    19   209   210    1
    20   209   212    1
    21   210   211    2
    22   214   212    1
    23   184   183    1
    24   212   213    1
    25   166   167    2
    26   166   165    1
    27   191   192    2
    28   191   190    1
    29   183   177   am
    30   168   165    1
    31   168   169    1
    32   196   198   ar
    33   196   194   ar
    34   221   222    1
    35   165   164    1
    36   189   190    1
    37   156   157    1
    38   190   193    1
    39   193   194    1
    40   164   158   am
    41   198   199   ar
    42   177   178    2
    43   177   176    1
    44   171   169   ar
    45   171   173   ar
    46   169   170   ar
    47   175   176    1
    48   194   195   ar
    49   158   157    1
    50   158   159    2
    51   157   160    1
    52   113   112    1
    53   223   222    1
    54   223   224    2
    55   222   225    1
    56   176   179    1
    57   173   174   ar
    58   106   104    1
    59   102   101    2
    60   199   197   ar
    61   225   226    1
    62   170   172   ar
    63   195   197   ar
    64   226   227    1
    65   226   228    1
    66   112   111    1
    67   112   114    1
    68   162   161    2
    69   105   104    1
    70   179   180    1
    71   160   161    1
    72   104   103    1
    73   101   100    1
    74   103   100    1
    75   174   172   ar
    76   111   108    1
    77   161   163   am
    78   100    99    1
    79   107   108    1
    80   152   151    2
    81   180   181    1
    82   180   182    1
    83   108   109    1
    84   151   150    1
    85    97    96    2
    86   109   110    2
    87    14    15    1
    88    14    13    1
    89    99    96   am
    90   154   153    1
    91    10    13    1
    92    10     9    1
    93    10    11    1
    94    15    16    1
    95    23    21    1
    96    96    95    1
    97    12    11    2
    98   153   150    1
    99   153   155    1
   100   150   149    1
   101    35    34    1
   102   135   136    1
   103   135   132    1
   104    21    22    1
   105    21    18    1
   106    90    89    2
   107    92    91    1
   108    95    98    1
   109    95    94    1
   110   117   118    2
   111   117   116    1
   112    17    18    1
   113   133   134    2
   114   133   132    1
   115   136   138   ar
   116   136   137   ar
   117   119   116    1
   118   119   120    1
   119    34    33   ar
   120    34    32   ar
   121     1     2    1
   122   138   140   ar
   123    33    31   ar
   124    18    19    1
   125   137   139   ar
   126   121   120    1
   127    89    88    1
   128   132   131    1
   129   116   115    1
   130   140   139   ar
   131     2     3    1
   132     2     5    1
   133     4     3    2
   134    91    88    1
   135    91    93    1
   136   120   122    1
   137    32    30   ar
   138   131   125   am
   139    31    29   ar
   140    88    87    1
   141     8     6    1
   142    19    20    2
   143   123   124    1
   144    30    29   ar
   145     6     5    1
   146     6     7    1
   147   125   126    2
   148   125   124    1
   149    29    28    1
   150   143   144    2
   151   143   142    1
   152    81    80    2
   153    87    80   am
   154   124   127    1
   155   145   142    1
   156   145   146    1
   157    80    79    1
   158   127   128    1
   159    28    25    1
   160   142   141    1
   161   147   146    1
   162    44    46   ar
   163    44    42   ar
   164    46    45   ar
   165   146   148    1
   166    77    76   ar
   167    77    75   ar
   168   128   130    1
   169   128   129    1
   170    24    25    1
   171    42    41   ar
   172    71    70    2
   173    25    26    1
   174    79    78    1
   175    79    82    1
   176    76    74   ar
   177    75    73   ar
   178    45    43   ar
   179    70    69    1
   180    82    83    1
   181    74    73   ar
   182    26    36   am
   183    26    27    2
   184    73    72    1
   185    41    43   ar
   186    41    40    1
   187    36    37    1
   188    72    69    1
   189    69    68    1
   190    40    37    1
   191    83    84    1
   192    84    85    1
   193    37    38    1
   194    66    64   ar
   195    66    67   ar
   196    38    39    2
   197    85    86    1
   198    64    62   ar
   199    67    65   ar
   200    55    56   ar
   201    55    53   ar
   202    62    61    1
   203    62    63   ar
   204    65    63   ar
   205    61    58    1
   206    56    54   ar
   207    53    52   ar
   208    54    52   ar
   209    58    57    1
   210    58    59    1
   211    60    59    2
   212    47    48    1
   213    52    51    1
   214    57    49   am
   215    48    49    1
   216    48    51    1
   217    49    50    2
