@<TRIPOS>MOLECULE
tmp/1wmzD00.pdb
 93 87 0 0 0
SMALL
GASTEIGER

@<TRIPOS>ATOM
      1  N        -18.9270    7.1220   43.5120 N.3    70  GLN70      -0.1245
      2  CA       -17.6340    6.7420   44.0510 C.3    70  GLN70       0.1566
      3  C        -16.5510    6.7050   42.9520 C.2    70  GLN70       0.2260
      4  O        -16.8700    6.7500   41.7890 O.2    70  GLN70      -0.2867
      5  CB       -17.7500    5.3990   44.7570 C.3    70  GLN70       0.0367
      6  CG       -18.6340    5.4430   46.0250 C.3    70  GLN70       0.0905
      7  CD       -20.1360    5.3240   45.6800 C.2    70  GLN70       0.2608
      8  OE1      -20.5520    4.3970   44.9840 O.2    70  GLN70      -0.2717
      9  NE2      -20.9300    6.2700   46.1540 N.am   70  GLN70      -0.0878
     10  N        -16.0720    2.0400   58.0860 N.3   101  GLN101     -0.1245
     11  CA       -15.3550    1.2930   57.0410 C.3   101  GLN101      0.1566
     12  C        -13.8790    1.0730   57.3960 C.2   101  GLN101      0.2260
     13  O        -13.3240    1.8400   58.2260 O.2   101  GLN101     -0.2867
     14  CB       -15.4500    2.0870   55.7430 C.3   101  GLN101      0.0367
     15  CG       -16.8820    2.5180   55.3760 C.3   101  GLN101      0.0905
     16  CD       -17.7970    1.3840   55.1310 C.2   101  GLN101      0.2608
     17  OE1      -17.3630    0.2920   54.7800 O.2   101  GLN101     -0.2717
     18  NE2      -19.1140    1.6300   55.3080 N.am  101  GLN101     -0.0878
     19  N        -15.7930   -2.5040   56.2200 N.3   103  ASP103     -0.1239
     20  CA       -16.6690   -3.4390   56.9420 C.3   103  ASP103      0.1674
     21  C        -16.8770   -4.8080   56.2700 C.2   103  ASP103      0.2266
     22  O        -17.5980   -5.6690   56.8020 O.2   103  ASP103     -0.2867
     23  CB       -17.9970   -2.7430   57.2080 C.3   103  ASP103      0.1410
     24  CG       -18.7790   -2.4950   55.9330 C.2   103  ASP103      0.3668
     25  OD1      -19.9860   -2.1510   56.0230 O.co2 103  ASP103     -0.2456
     26  OD2      -18.2740   -2.6270   54.7820 O.co2 103  ASP103     -0.2456
     27  N        -18.7750   -5.8610   53.9190 N.3   105  TRP105     -0.1241
     28  CA       -20.2180   -6.1430   53.9080 C.3   105  TRP105      0.1605
     29  C        -20.5380   -7.4180   53.1210 C.2   105  TRP105      0.2264
     30  O        -20.0090   -7.6470   52.0400 O.2   105  TRP105     -0.2867
     31  CB       -21.0010   -4.9710   53.3470 C.3   105  TRP105      0.0550
     32  CG       -22.4950   -5.0840   53.6450 C.ar  105  TRP105      0.0003
     33  CD1      -23.4910   -5.2840   52.7390 C.ar  105  TRP105      0.0946
     34  CD2      -23.1370   -5.0150   54.9350 C.ar  105  TRP105      0.0152
     35  NE1      -24.7080   -5.3470   53.3810 N.ar  105  TRP105     -0.2442
     36  CE2      -24.5240   -5.1720   54.7230 C.ar  105  TRP105      0.0810
     37  CE3      -22.6790   -4.8150   56.2500 C.ar  105  TRP105      0.0012
     38  CZ2      -25.4650   -5.1610   55.7750 C.ar  105  TRP105      0.0191
     39  CZ3      -23.6260   -4.7990   57.3100 C.ar  105  TRP105      0.0001
     40  CH2      -24.9990   -4.9760   57.0540 C.ar  105  TRP105      0.0015
     41  N        -16.7760   -7.5560   50.2260 N.3   109  GLU109     -0.1245
     42  CA       -16.2310   -6.2500   49.8390 C.3   109  GLU109      0.1567
     43  C        -14.7180   -6.2330   49.9920 C.2   109  GLU109      0.2260
     44  O        -14.2280   -6.2070   51.1420 O.2   109  GLU109     -0.2867
     45  CB       -16.8500   -5.1400   50.6760 C.3   109  GLU109      0.0388
     46  CG       -18.3440   -4.9970   50.3920 C.3   109  GLU109      0.1160
     47  CD       -18.9640   -3.7490   50.9460 C.2   109  GLU109      0.3649
     48  OE1      -18.5610   -3.3230   52.0390 O.co2 109  GLU109     -0.2457
     49  OE2      -19.8440   -3.1540   50.2750 O.co2 109  GLU109     -0.2457
     50  N        -12.4870    2.3660   47.2830 N.3   113  GLN113     -0.1245
     51  CA       -12.9540    3.4940   46.4920 C.3   113  GLN113      0.1566
     52  C        -13.1330    4.7340   47.3780 C.2   113  GLN113      0.2260
     53  O        -13.3800    4.5980   48.5870 O.2   113  GLN113     -0.2867
     54  CB       -14.3230    3.1890   45.8230 C.3   113  GLN113      0.0367
     55  CG       -15.3920    2.7250   46.8820 C.3   113  GLN113      0.0905
     56  CD       -16.7570    2.3550   46.3350 C.2   113  GLN113      0.2608
     57  OE1      -17.7450    2.3850   47.1170 O.2   113  GLN113     -0.2717
     58  NE2      -16.8540    2.0080   45.0480 N.am  113  GLN113     -0.0878
     59  N        -15.4710    7.8100   48.4780 N.3   115  ARG115     -0.1245
     60  CA       -16.8040    8.3710   48.3830 C.3   115  ARG115      0.1563
     61  C        -16.7050    9.7980   47.8180 C.2   115  ARG115      0.2260
     62  O        -15.6350   10.4150   47.8280 O.2   115  ARG115     -0.2867
     63  CB       -17.4450    8.4390   49.7770 C.3   115  ARG115      0.0307
     64  CG       -17.7930    7.1430   50.4010 C.3   115  ARG115      0.0489
     65  CD       -18.3520    7.3250   51.7750 C.3   115  ARG115      0.2205
     66  NE       -18.8520    6.0830   52.3210 N.pl3 115  ARG115     -0.0865
     67  CZ       -19.3190    5.9440   53.5500 C.cat 115  ARG115      0.5346
     68  NH1      -19.3010    6.9790   54.3600 N.pl3 115  ARG115      0.1354
     69  NH2      -19.7880    4.7690   53.9780 N.pl3 115  ARG115      0.1354
     70  N        -14.1630    3.6710   51.1730 N.3   123  ASN123     -0.1225
     71  CA       -15.0870    2.5940   51.4640 C.3   123  ASN123      0.1785
     72  C        -14.6100    1.3450   50.7470 C.2   123  ASN123      0.2597
     73  O        -13.9740    1.4420   49.6750 O.2   123  ASN123     -0.2718
     74  CB       -16.5000    2.9480   50.9790 C.3   123  ASN123      0.1169
     75  CG       -17.4270    1.7840   51.0640 C.2   123  ASN123      0.2627
     76  OD1      -17.5370    1.1640   52.1260 O.2   123  ASN123     -0.2716
     77  ND2      -18.0490    1.3860   49.9300 N.am  123  ASN123     -0.0877
     78  N        -14.8450    0.1870   51.3330 N.am  124  ASP124     -0.1960
     79  CA       -14.6290   -1.0640   50.6190 C.3   124  ASP124      0.1840
     80  C        -15.9340   -1.4820   50.0090 C.2   124  ASP124      0.2622
     81  O        -16.9840   -1.3550   50.6530 O.2   124  ASP124     -0.2715
     82  CB       -14.0460   -2.1700   51.5150 C.3   124  ASP124      0.1450
     83  CG       -14.9010   -2.5100   52.7460 C.2   124  ASP124      0.3671
     84  OD1      -15.7110   -1.6750   53.1980 O.co2 124  ASP124     -0.2456
     85  OD2      -14.7630   -3.6170   53.2760 O.co2 124  ASP124     -0.2456
     86  N        -15.8950   -1.9500   48.7510 N.am  125  ASN125     -0.1972
     87  CA       -17.1010   -2.3460   48.0080 C.3   125  ASN125      0.1688
     88  C        -16.8470   -3.6650   47.2780 C.2   125  ASN125      0.2292
     89  O        -15.7320   -4.1710   47.3070 O.2   125  ASN125     -0.2864
     90  CB       -17.5850   -1.1780   47.0820 C.3   125  ASN125      0.1181
     91  CG       -19.1240   -1.0830   47.0080 C.2   125  ASN125      0.2629
     92  OD1      -19.8000   -2.1400   46.9760 O.2   125  ASN125     -0.2716
     93  ND2      -19.6720    0.1470   47.0000 N.am  125  ASN125     -0.0877
@<TRIPOS>BOND
     1     4     3    2
     2     3     2    1
     3     1     2    1
     4     2     5    1
     5     5     6    1
     6     8     7    2
     7    58    56   am
     8     7     6    1
     9     7     9   am
    10    54    51    1
    11    54    55    1
    12    56    55    1
    13    56    57    2
    14    51    50    1
    15    51    52    1
    16    92    91    2
    17    93    91   am
    18    91    90    1
    19    90    87    1
    20    88    89    2
    21    88    87    1
    22    52    53    2
    23    61    62    2
    24    61    60    1
    25    87    86    1
    26    60    59    1
    27    60    63    1
    28    86    80   am
    29    73    72    2
    30    63    64    1
    31    42    43    1
    32    42    41    1
    33    42    45    1
    34    77    75   am
    35    43    44    2
    36    80    79    1
    37    80    81    2
    38    49    47   ar
    39    46    45    1
    40    46    47    1
    41    64    65    1
    42    79    78    1
    43    79    82    1
    44    72    78   am
    45    72    71    1
    46    47    48   ar
    47    74    75    1
    48    74    71    1
    49    75    76    2
    50    70    71    1
    51    82    83    1
    52    65    66    1
    53    30    29    2
    54    66    67    2
    55    33    35   ar
    56    33    32   ar
    57    83    84   ar
    58    83    85   ar
    59    29    28    1
    60    31    32    1
    61    31    28    1
    62    35    36   ar
    63    67    69    1
    64    67    68    1
    65    32    34   ar
    66    28    27    1
    67    36    34   ar
    68    36    38   ar
    69    17    16    2
    70    26    24   ar
    71    34    37   ar
    72    16    18   am
    73    16    15    1
    74    15    14    1
    75    14    11    1
    76    38    40   ar
    77    24    25   ar
    78    24    23    1
    79    19    20    1
    80    37    39   ar
    81    21    22    2
    82    21    20    1
    83    20    23    1
    84    11    12    1
    85    11    10    1
    86    40    39   ar
    87    12    13    2
