@<TRIPOS>MOLECULE
tmp/1wn3B00.pdb
 73 67 0 0 0
SMALL
GASTEIGER

@<TRIPOS>ATOM
      1  N         -5.2580   37.9010   26.1790 N.3     2  ASP2       -0.1239
      2  CA        -4.6440   36.7950   25.4470 C.3     2  ASP2        0.1674
      3  C         -3.5020   36.2240   26.2810 C.2     2  ASP2        0.2266
      4  O         -2.4230   36.8190   26.3780 O.2     2  ASP2       -0.2867
      5  CB        -4.1060   37.2740   24.1010 C.3     2  ASP2        0.1410
      6  CG        -3.6490   36.1300   23.2160 C.2     2  ASP2        0.3668
      7  OD1       -2.6990   35.4060   23.5920 O.co2   2  ASP2       -0.2456
      8  OD2       -4.2480   35.9540   22.1370 O.co2   2  ASP2       -0.2456
      9  N          1.7400   37.4570   14.4880 N.3    47  ASP47      -0.1239
     10  CA         0.4960   36.7110   14.4970 C.3    47  ASP47       0.1674
     11  C         -0.5280   37.3100   15.4680 C.2    47  ASP47       0.2266
     12  O         -1.7210   37.3430   15.1700 O.2    47  ASP47      -0.2867
     13  CB         0.7820   35.2490   14.8540 C.3    47  ASP47       0.1410
     14  CG        -0.4430   34.3690   14.7330 C.2    47  ASP47       0.3668
     15  OD1       -0.9900   34.2660   13.6170 O.co2  47  ASP47      -0.2456
     16  OD2       -0.8600   33.7830   15.7540 O.co2  47  ASP47      -0.2456
     17  N         -4.1750   38.5440   14.4920 N.3    51  ALA51      -0.1245
     18  CA        -5.3830   38.0140   15.1160 C.3    51  ALA51       0.1562
     19  C         -6.2900   39.1180   15.6650 C.2    51  ALA51       0.2260
     20  O         -7.5100   39.0670   15.5000 O.2    51  ALA51      -0.2867
     21  CB        -5.0090   37.0510   16.2310 C.3    51  ALA51       0.0290
     22  N        -10.0020   40.2260   14.0120 N.3    55  ASN55      -0.1240
     23  CA       -11.1910   40.0280   14.8280 C.3    55  ASN55       0.1653
     24  C        -11.9900   41.2860   15.1700 C.2    55  ASN55       0.2266
     25  O        -13.0600   41.1900   15.7750 O.2    55  ASN55      -0.2867
     26  CB       -10.8360   39.2520   16.0990 C.3    55  ASN55       0.1155
     27  CG       -10.8100   37.7500   15.8650 C.2    55  ASN55       0.2627
     28  OD1      -11.7200   37.0270   16.2790 O.2    55  ASN55      -0.2716
     29  ND2       -9.7750   37.2750   15.1750 N.am   55  ASN55      -0.0877
     30  N        -12.9420   35.6460   13.5400 N.3    60  ALA60      -0.1231
     31  CA       -12.2420   35.1450   12.3670 C.3    60  ALA60       0.1694
     32  C        -11.1440   34.1820   12.7860 C.2    60  ALA60       0.2592
     33  O        -10.5670   34.3170   13.8670 O.2    60  ALA60      -0.2718
     34  CB       -11.6470   36.3070   11.5800 C.3    60  ALA60       0.0304
     35  N        -10.8670   33.2030   11.9310 N.am   61  VAL61      -0.1966
     36  CA        -9.8320   32.2220   12.2120 C.3    61  VAL61       0.1727
     37  C         -8.7810   32.2010   11.1070 C.2    61  VAL61       0.2616
     38  O         -9.0980   32.3190    9.9230 O.2    61  VAL61      -0.2715
     39  CB       -10.4310   30.8080   12.3770 C.3    61  VAL61       0.0290
     40  CG1      -11.2610   30.7400   13.6530 C.3    61  VAL61       0.0023
     41  CG2      -11.2950   30.4690   11.1900 C.3    61  VAL61       0.0023
     42  N         -7.5240   32.0630   11.5110 N.am   62  ALA62      -0.1963
     43  CA        -6.4120   32.0290   10.5770 C.3    62  ALA62       0.1728
     44  C         -6.4680   30.8140    9.6660 C.2    62  ALA62       0.2616
     45  O         -6.7940   29.7050   10.0990 O.2    62  ALA62      -0.2715
     46  CB        -5.0930   32.0340   11.3420 C.3    62  ALA62       0.0334
     47  N         -6.1570   31.0400    8.3940 N.am   63  LEU63      -0.1977
     48  CA        -6.0980   29.9700    7.4090 C.3    63  LEU63       0.1596
     49  C         -4.6490   29.7140    7.0020 C.2    63  LEU63       0.2287
     50  O         -4.0820   28.6470    7.2060 O.2    63  LEU63      -0.2864
     51  CB        -6.9110   30.3890    6.1780 C.3    63  LEU63       0.0297
     52  CG        -8.4360   30.3760    6.3870 C.3    63  LEU63       0.0022
     53  CD1       -9.2010   30.7080    5.1050 C.3    63  LEU63       0.0001
     54  CD2       -8.9730   29.0220    6.8480 C.3    63  LEU63       0.0001
     55  N        -10.4870   33.2840    7.8060 N.3   114  PHE114     -0.1241
     56  CA       -11.7860   32.8400    7.3300 C.3   114  PHE114      0.1605
     57  C        -12.7280   33.5690    8.2820 C.2   114  PHE114      0.2264
     58  O        -12.6030   33.4360    9.5010 O.2   114  PHE114     -0.2867
     59  CB       -11.9100   31.3200    7.4810 C.3   114  PHE114      0.0534
     60  CG       -13.2690   30.7800    7.1380 C.ar  114  PHE114     -0.0203
     61  CD1      -14.3240   30.8780    8.0420 C.ar  114  PHE114     -0.0042
     62  CD2      -13.5010   30.1850    5.9030 C.ar  114  PHE114     -0.0042
     63  CE1      -15.5930   30.3910    7.7220 C.ar  114  PHE114     -0.0003
     64  CE2      -14.7670   29.6940    5.5720 C.ar  114  PHE114     -0.0003
     65  CZ       -15.8160   29.7980    6.4850 C.ar  114  PHE114     -0.0000
     66  N        -15.9840   34.0460   10.2340 N.3   116  LEU116     -0.1245
     67  CA       -17.1250   33.2580   10.6880 C.3   116  LEU116      0.1561
     68  C        -18.4480   33.9870   10.4980 C.2   116  LEU116      0.2260
     69  O        -18.4550   35.2370   10.5470 O.2   116  LEU116     -0.2867
     70  CB       -16.9620   32.8860   12.1610 C.3   116  LEU116      0.0270
     71  CG       -15.7890   31.9650   12.4780 C.3   116  LEU116      0.0019
     72  CD1      -15.7600   31.6710   13.9670 C.3   116  LEU116      0.0001
     73  CD2      -15.9180   30.6760   11.6650 C.3   116  LEU116      0.0001
@<TRIPOS>BOND
     1    53    52    1
     2    64    62   ar
     3    64    65   ar
     4    62    60   ar
     5    51    52    1
     6    51    48    1
     7    52    54    1
     8    65    63   ar
     9    49    50    2
    10    49    48    1
    11    60    59    1
    12    60    61   ar
    13    56    59    1
    14    56    55    1
    15    56    57    1
    16    48    47    1
    17    63    61   ar
    18    57    58    2
    19    47    44   am
    20    44    45    2
    21    44    43    1
    22    38    37    2
    23    66    67    1
    24    68    69    2
    25    68    67    1
    26    43    46    1
    27    43    42    1
    28    67    70    1
    29    37    42   am
    30    37    36    1
    31    41    39    1
    32    34    31    1
    33    73    71    1
    34    35    36    1
    35    35    32   am
    36    70    71    1
    37    36    39    1
    38    31    32    1
    39    31    30    1
    40    39    40    1
    41    71    72    1
    42    32    33    2
    43    15    14   ar
    44    22    23    1
    45     9    10    1
    46    17    18    1
    47    10    13    1
    48    10    11    1
    49    14    13    1
    50    14    16   ar
    51    23    24    1
    52    23    26    1
    53    18    19    1
    54    18    21    1
    55    24    25    2
    56    12    11    2
    57    29    27   am
    58    20    19    2
    59    27    26    1
    60    27    28    2
    61     8     6   ar
    62     6     7   ar
    63     6     5    1
    64     5     2    1
    65     2     1    1
    66     2     3    1
    67     3     4    2
