@<TRIPOS>MOLECULE
tmp/1wn3D01.pdb
 110 110 0 0 0
SMALL
GASTEIGER

@<TRIPOS>ATOM
      1  N         -5.0680   31.5120   23.0520 N.3    32  ASN32      -0.1225
      2  CA        -5.3490   32.8250   22.5100 C.3    32  ASN32       0.1785
      3  C         -6.5750   33.3690   23.2460 C.2    32  ASN32       0.2597
      4  O         -7.0820   32.7360   24.1800 O.2    32  ASN32      -0.2718
      5  CB        -5.6390   32.7430   21.0140 C.3    32  ASN32       0.1169
      6  CG        -6.7270   31.7440   20.6850 C.2    32  ASN32       0.2627
      7  OD1       -7.7420   31.6630   21.3790 O.2    32  ASN32      -0.2716
      8  ND2       -6.5250   30.9810   19.6110 N.am   32  ASN32      -0.0877
      9  N         -7.0580   34.5290   22.8180 N.am   33  LEU33      -0.1966
     10  CA        -8.2000   35.1500   23.4910 C.3    33  LEU33       0.1728
     11  C         -9.5100   34.3670   23.2880 C.2    33  LEU33       0.2616
     12  O        -10.5410   34.6460   23.8810 O.2    33  LEU33      -0.2715
     13  CB        -8.3300   36.6150   23.0330 C.3    33  LEU33       0.0311
     14  CG        -8.6920   36.8030   21.5460 C.3    33  LEU33       0.0022
     15  CD1       -9.0000   38.2670   21.2030 C.3    33  LEU33       0.0001
     16  CD2       -7.5600   36.3950   20.6020 C.3    33  LEU33       0.0001
     17  N         -9.4470   33.3600   22.3920 N.am   34  HIS34      -0.1973
     18  CA       -10.6450   32.5690   22.1120 C.3    34  HIS34       0.1656
     19  C        -10.7070   31.2870   22.9490 C.2    34  HIS34       0.2291
     20  O        -11.7000   30.5710   22.9720 O.2    34  HIS34      -0.2864
     21  CB       -10.6500   32.2230   20.6210 C.3    34  HIS34       0.0771
     22  CG       -10.9430   33.4640   19.8170 C.ar   34  HIS34       0.0820
     23  ND1      -12.1930   33.9620   19.6430 N.ar   34  HIS34      -0.2267
     24  CD2      -10.0390   34.2920   19.1430 C.ar   34  HIS34       0.1154
     25  CE1      -12.0420   35.0650   18.8850 C.ar   34  HIS34       0.1986
     26  NE2      -10.7630   35.2860   18.5700 N.ar   34  HIS34      -0.2212
     27  N         -8.4690   28.7580   22.5550 N.3    36  THR36      -0.1203
     28  CA        -7.8720   27.6490   21.8160 C.3    36  THR36       0.1994
     29  C         -6.3790   27.9270   21.6810 C.2    36  THR36       0.2618
     30  O         -5.9260   29.0470   21.9460 O.2    36  THR36      -0.2717
     31  CB        -8.4810   27.5000   20.4040 C.3    36  THR36       0.1784
     32  OG1       -8.1530   28.6480   19.6170 O.3    36  THR36      -0.2211
     33  CG2       -9.9970   27.3650   20.4860 C.3    36  THR36       0.0376
     34  N         -5.6170   26.9130   21.2800 N.am   37  ALA37      -0.1965
     35  CA        -4.1770   27.0690   21.1160 C.3    37  ALA37       0.1728
     36  C         -3.9000   28.2740   20.2340 C.2    37  ALA37       0.2616
     37  O         -4.4990   28.4320   19.1740 O.2    37  ALA37      -0.2715
     38  CB        -3.5770   25.8220   20.4960 C.3    37  ALA37       0.0334
     39  N         -2.9950   29.1260   20.6900 N.am   38  HIS38      -0.1959
     40  CA        -2.6280   30.3300   19.9580 C.3    38  HIS38       0.1787
     41  C         -1.8710   29.9250   18.6870 C.2    38  HIS38       0.2620
     42  O         -1.0400   29.0190   18.7110 O.2    38  HIS38      -0.2715
     43  CB        -1.7660   31.2060   20.8730 C.3    38  HIS38       0.0785
     44  CG        -1.5200   32.5890   20.3550 C.ar   38  HIS38       0.0821
     45  ND1       -0.6760   32.8530   19.2970 N.ar   38  HIS38      -0.2267
     46  CD2       -1.9650   33.7920   20.7910 C.ar   38  HIS38       0.1154
     47  CE1       -0.6080   34.1590   19.1070 C.ar   38  HIS38       0.1986
     48  NE2       -1.3800   34.7520   20.0010 N.ar   38  HIS38      -0.2212
     49  N         -2.1860   30.5720   17.5700 N.am   39  GLY39      -0.1954
     50  CA        -1.5090   30.2570   16.3220 C.3    39  GLY39       0.1869
     51  C          0.0010   30.3750   16.4570 C.2    39  GLY39       0.2309
     52  O          0.7510   29.6700   15.7790 O.2    39  GLY39      -0.2863
     53  N          1.5060   27.0560   18.1260 N.3    42  LEU42      -0.1245
     54  CA         1.5710   25.9600   17.1660 C.3    42  LEU42       0.1561
     55  C          2.7040   26.1980   16.1780 C.2    42  LEU42       0.2260
     56  O          3.3990   25.2700   15.7730 O.2    42  LEU42      -0.2867
     57  CB         0.2470   25.8380   16.4130 C.3    42  LEU42       0.0270
     58  CG        -0.9630   25.4420   17.2670 C.3    42  LEU42       0.0019
     59  CD1       -2.1910   25.3170   16.3810 C.3    42  LEU42       0.0001
     60  CD2       -0.6840   24.1240   17.9780 C.3    42  LEU42       0.0001
     61  N         -3.3030   26.4650    8.8670 N.3    69  TYR69      -0.1227
     62  CA        -4.0490   25.9480   10.0160 C.3    69  TYR69       0.1736
     63  C         -5.3020   25.1910    9.5860 C.2    69  TYR69       0.2595
     64  O         -6.0990   25.6950    8.7900 O.2    69  TYR69      -0.2718
     65  CB        -4.4370   27.1040   10.9400 C.3    69  TYR69       0.0548
     66  CG        -3.2540   27.8530   11.5250 C.ar   69  TYR69      -0.0200
     67  CD1       -2.6120   27.3980   12.6800 C.ar   69  TYR69      -0.0009
     68  CD2       -2.7920   29.0340   10.9390 C.ar   69  TYR69      -0.0009
     69  CE1       -1.5420   28.1100   13.2430 C.ar   69  TYR69       0.0417
     70  CE2       -1.7230   29.7510   11.4880 C.ar   69  TYR69       0.0417
     71  CZ        -1.1060   29.2830   12.6410 C.ar   69  TYR69       0.1957
     72  OH        -0.0630   29.9910   13.1950 O.3    69  TYR69      -0.2866
     73  N         -5.4820   23.9880   10.1240 N.am   70  PHE70      -0.1962
     74  CA        -6.6350   23.1730    9.7590 C.3    70  PHE70       0.1771
     75  C         -7.6440   22.9290   10.8830 C.2    70  PHE70       0.2619
     76  O         -8.8520   22.9350   10.6490 O.2    70  PHE70      -0.2715
     77  CB        -6.1670   21.8140    9.2170 C.3    70  PHE70       0.0574
     78  CG        -5.1430   21.9090    8.1140 C.ar   70  PHE70      -0.0200
     79  CD1       -5.3280   22.7750    7.0380 C.ar   70  PHE70      -0.0042
     80  CD2       -4.0110   21.1030    8.1330 C.ar   70  PHE70      -0.0042
     81  CE1       -4.3920   22.8350    5.9920 C.ar   70  PHE70      -0.0003
     82  CE2       -3.0720   21.1530    7.0920 C.ar   70  PHE70      -0.0003
     83  CZ        -3.2640   22.0200    6.0230 C.ar   70  PHE70      -0.0000
     84  N         -7.1540   22.7080   12.0970 N.am   71  ARG71      -0.1964
     85  CA        -8.0380   22.4250   13.2240 C.3    71  ARG71       0.1714
     86  C         -7.6180   23.1550   14.4920 C.2    71  ARG71       0.2458
     87  O         -6.4350   23.3300   14.7510 O.2    71  ARG71      -0.2730
     88  CB        -8.0460   20.9180   13.5140 C.3    71  ARG71       0.0347
     89  CG        -8.5650   20.0340   12.3890 C.3    71  ARG71       0.0492
     90  CD        -7.9620   18.6440   12.5180 C.3    71  ARG71       0.2205
     91  NE        -8.6110   17.6460   11.6710 N.pl3  71  ARG71      -0.0865
     92  CZ        -9.7690   17.0590   11.9570 C.cat  71  ARG71       0.5346
     93  NH1      -10.4190   17.3680   13.0730 N.pl3  71  ARG71       0.1354
     94  NH2      -10.2730   16.1510   11.1320 N.pl3  71  ARG71       0.1354
     95  N         -8.5920   23.5870   15.3020 N.am   72  PRO72      -0.2727
     96  CA        -8.2770   24.2900   16.5460 C.3    72  PRO72       0.1402
     97  C         -8.0170   23.2560   17.6380 C.2    72  PRO72       0.2269
     98  O         -8.4620   22.1100   17.5280 O.2    72  PRO72      -0.2865
     99  CB        -9.5400   25.0990   16.8050 C.3    72  PRO72       0.0296
    100  CG       -10.6150   24.1610   16.3380 C.3    72  PRO72       0.0237
    101  CD       -10.0460   23.5970   15.0410 C.3    72  PRO72       0.0939
    102  N         -4.7980   13.7410   14.4490 N.3   104  LYS104     -0.1245
    103  CA        -5.3260   14.6990   13.4790 C.3   104  LYS104      0.1561
    104  C         -4.2590   15.6680   12.9760 C.2   104  LYS104      0.2260
    105  O         -3.3850   16.0930   13.7390 O.2   104  LYS104     -0.2867
    106  CB        -6.4610   15.5250   14.0970 C.3   104  LYS104      0.0271
    107  CG        -7.5840   14.7140   14.7280 C.3   104  LYS104      0.0035
    108  CD        -8.7240   15.6190   15.1890 C.3   104  LYS104      0.0206
    109  CE        -8.2640   16.6480   16.2090 C.3   104  LYS104      0.1093
    110  NZ        -7.7690   16.0100   17.4560 N.3   104  LYS104     -0.1314
@<TRIPOS>BOND
     1    81    83   ar
     2    81    79   ar
     3    83    82   ar
     4    79    78   ar
     5    82    80   ar
     6    78    80   ar
     7    78    77    1
     8    64    63    2
     9    61    62    1
    10    77    74    1
    11    63    62    1
    12    63    73   am
    13    74    73    1
    14    74    75    1
    15    62    65    1
    16    76    75    2
    17    75    84   am
    18    68    70   ar
    19    68    66   ar
    20    65    66    1
    21    94    92    1
    22    70    71   ar
    23    66    67   ar
    24    91    92    2
    25    91    90    1
    26    92    93    1
    27    84    85    1
    28    89    90    1
    29    89    88    1
    30    71    72    1
    31    71    69   ar
    32    67    69   ar
    33   104   103    1
    34   104   105    2
    35    85    88    1
    36    85    86    1
    37   103   106    1
    38   103   102    1
    39   106   107    1
    40    86    87    2
    41    86    95   am
    42   107   108    1
    43   101    95    1
    44   101   100    1
    45   108   109    1
    46    95    96    1
    47    56    55    2
    48    52    51    2
    49    55    54    1
    50   109   110    1
    51    50    51    1
    52    50    49    1
    53   100    99    1
    54    59    58    1
    55    57    54    1
    56    57    58    1
    57    96    99    1
    58    96    97    1
    59    54    53    1
    60    58    60    1
    61    98    97    2
    62    49    41   am
    63    26    25   ar
    64    26    24   ar
    65    41    42    2
    66    41    40    1
    67    25    23   ar
    68    47    45   ar
    69    47    48   ar
    70    24    22   ar
    71    37    36    2
    72    45    44   ar
    73     8     6   am
    74    32    31    1
    75    23    22   ar
    76    22    21    1
    77    40    39    1
    78    40    43    1
    79    48    46   ar
    80    36    39   am
    81    36    35    1
    82    44    46   ar
    83    44    43    1
    84    31    33    1
    85    31    28    1
    86    38    35    1
    87    16    14    1
    88    21    18    1
    89     6     5    1
    90     6     7    2
    91     5     2    1
    92    35    34    1
    93    15    14    1
    94    34    29   am
    95    14    13    1
    96    29    28    1
    97    29    30    2
    98    28    27    1
    99    18    17    1
   100    18    19    1
   101    17    11   am
   102     2     1    1
   103     2     3    1
   104     9     3   am
   105     9    10    1
   106    19    20    2
   107    13    10    1
   108     3     4    2
   109    11    10    1
   110    11    12    2
