@<TRIPOS>MOLECULE
tmp/1wnbB00.pdb
 112 109 0 0 0
SMALL
GASTEIGER

@<TRIPOS>ATOM
      1  N         34.8680   44.5900   67.3750 N.3    99  ASP99      -0.1239
      2  CA        36.3110   44.9230   67.1910 C.3    99  ASP99       0.1674
      3  C         36.6950   44.6980   65.7350 C.2    99  ASP99       0.2266
      4  O         37.1930   45.5950   65.1020 O.2    99  ASP99      -0.2867
      5  CB        37.2640   44.0270   68.0270 C.3    99  ASP99       0.1410
      6  CG        36.9290   43.9880   69.5410 C.2    99  ASP99       0.3668
      7  OD1       36.2360   44.8900   70.0080 O.co2  99  ASP99      -0.2456
      8  OD2       37.2830   43.0810   70.3270 O.co2  99  ASP99      -0.2456
      9  N         43.2550   35.5990   62.1250 N.3   150  TYR150     -0.1241
     10  CA        42.2700   36.6130   61.7430 C.3   150  TYR150      0.1605
     11  C         41.9670   36.4510   60.2510 C.2   150  TYR150      0.2264
     12  O         42.5480   37.1460   59.4410 O.2   150  TYR150     -0.2867
     13  CB        42.8330   38.0280   62.0360 C.3   150  TYR150      0.0534
     14  CG        43.0200   38.3120   63.5160 C.ar  150  TYR150     -0.0201
     15  CD1       41.9950   38.8270   64.2770 C.ar  150  TYR150     -0.0009
     16  CD2       44.2490   38.0490   64.1600 C.ar  150  TYR150     -0.0009
     17  CE1       42.1610   39.0730   65.6380 C.ar  150  TYR150      0.0417
     18  CE2       44.4160   38.2860   65.5410 C.ar  150  TYR150      0.0417
     19  CZ        43.3530   38.7700   66.2530 C.ar  150  TYR150      0.1957
     20  OH        43.5130   39.0570   67.5660 O.3   150  TYR150     -0.2866
     21  N         40.1020   39.6460   58.4090 N.3   153  MET153     -0.1230
     22  CA        41.0060   40.7980   58.5430 C.3   153  MET153      0.1702
     23  C         42.3190   40.6390   57.7150 C.2   153  MET153      0.2592
     24  O         42.8400   41.6100   57.1790 O.2   153  MET153     -0.2718
     25  CB        41.3190   41.0970   60.0270 C.3   153  MET153      0.0401
     26  CG        42.1010   42.3980   60.2190 C.3   153  MET153      0.0596
     27  SD        42.4790   42.8170   61.9740 S.3   153  MET153     -0.1393
     28  CE        40.8400   42.7360   62.7060 C.3   153  MET153      0.0692
     29  N         42.8630   39.4290   57.6440 N.am  154  MET154     -0.1979
     30  CA        44.1430   39.2620   56.9690 C.3   154  MET154      0.1605
     31  C         43.9050   39.2610   55.4690 C.2   154  MET154      0.2287
     32  O         44.7990   39.6460   54.6980 O.2   154  MET154     -0.2864
     33  CB        44.8560   37.9430   57.3740 C.3   154  MET154      0.0413
     34  CG        45.6160   37.9640   58.7010 C.3   154  MET154      0.0598
     35  SD        46.5830   39.4710   59.1580 S.3   154  MET154     -0.1393
     36  CE        45.4290   40.4480   59.9350 C.3   154  MET154      0.0692
     37  N         43.8720   42.8130   54.7220 N.3   157  TRP157     -0.1241
     38  CA        45.2360   43.4140   54.7560 C.3   157  TRP157      0.1605
     39  C         45.9770   43.0980   53.4720 C.2   157  TRP157      0.2264
     40  O         46.7360   43.8750   52.9580 O.2   157  TRP157     -0.2867
     41  CB        46.0560   42.9580   55.9580 C.3   157  TRP157      0.0550
     42  CG        45.7000   43.5840   57.3050 C.ar  157  TRP157      0.0003
     43  CD1       44.6100   44.3410   57.5830 C.ar  157  TRP157      0.0946
     44  CD2       46.4420   43.4930   58.5430 C.ar  157  TRP157      0.0152
     45  NE1       44.5820   44.6790   58.9220 N.ar  157  TRP157     -0.2442
     46  CE2       45.7020   44.2030   59.5350 C.ar  157  TRP157      0.0810
     47  CE3       47.6580   42.9110   58.9120 C.ar  157  TRP157      0.0012
     48  CZ2       46.1230   44.3340   60.8750 C.ar  157  TRP157      0.0191
     49  CZ3       48.0890   43.0420   60.2630 C.ar  157  TRP157      0.0001
     50  CH2       47.3050   43.7500   61.2220 C.ar  157  TRP157      0.0015
     51  N         43.6190   37.7850   74.4110 N.3   274  TYR274     -0.1241
     52  CA        42.6460   38.0880   73.4030 C.3   274  TYR274      0.1605
     53  C         42.9070   37.1800   72.2050 C.2   274  TYR274      0.2264
     54  O         44.0680   36.9810   71.8080 O.2   274  TYR274     -0.2867
     55  CB        42.7970   39.5530   72.9570 C.3   274  TYR274      0.0534
     56  CG        41.7590   40.0360   71.9720 C.ar  274  TYR274     -0.0201
     57  CD1       41.9560   39.8970   70.5790 C.ar  274  TYR274     -0.0009
     58  CD2       40.5780   40.6410   72.4150 C.ar  274  TYR274     -0.0009
     59  CE1       40.9850   40.3680   69.6490 C.ar  274  TYR274      0.0417
     60  CE2       39.5960   41.1230   71.4900 C.ar  274  TYR274      0.0417
     61  CZ        39.8120   40.9740   70.1170 C.ar  274  TYR274      0.1957
     62  OH        38.8450   41.4380   69.2200 O.3   274  TYR274     -0.2866
     63  N         47.7990   35.7280   68.2800 N.3   279  ASP279     -0.1225
     64  CA        47.9520   37.0410   67.7520 C.3   279  ASP279      0.1805
     65  C         49.4580   37.2260   67.6690 C.2   279  ASP279      0.2598
     66  O         50.1730   36.8120   68.5840 O.2   279  ASP279     -0.2718
     67  CB        47.3250   38.0810   68.6980 C.3   279  ASP279      0.1424
     68  CG        47.1220   39.4410   68.0030 C.2   279  ASP279      0.3668
     69  OD1       48.1260   40.1520   67.7540 O.co2 279  ASP279     -0.2456
     70  OD2       45.9850   39.8560   67.6440 O.co2 279  ASP279     -0.2456
     71  N         49.9220   37.8260   66.5550 N.am  280  CYS280     -0.1956
     72  CA        51.3320   38.1180   66.3440 C.3   280  CYS280      0.1843
     73  C         51.8190   39.3110   67.1610 C.2   280  CYS280      0.2626
     74  O         53.0400   39.5690   67.1750 O.2   280  CYS280     -0.2714
     75  CB        51.6300   38.3770   64.8600 C.3   280  CYS280      0.0997
     76  SG        50.6950   39.7680   64.1460 S.3   280  CYS280     -0.0797
     77  N         50.8980   40.0640   67.7770 N.am  281  THR281     -0.1950
     78  CA        51.2780   41.1170   68.7280 C.3   281  THR281      0.1897
     79  C         50.8750   40.8070   70.2100 C.2   281  THR281      0.2313
     80  O         50.8560   41.7430   71.0560 O.2   281  THR281     -0.2863
     81  CB        50.6870   42.4930   68.3170 C.3   281  THR281      0.1794
     82  OG1       49.2630   42.4240   68.3700 O.3   281  THR281     -0.2208
     83  CG2       50.9620   42.8390   66.8390 C.3   281  THR281      0.0378
     84  N         49.0980   46.4860   71.8970 N.3   436  PHE436     -0.1241
     85  CA        48.0250   45.9230   71.0490 C.3   436  PHE436      0.1605
     86  C         47.2360   46.8620   70.0470 C.2   436  PHE436      0.2264
     87  O         46.6180   46.3840   69.1120 O.2   436  PHE436     -0.2867
     88  CB        46.9860   45.2860   71.9460 C.3   436  PHE436      0.0534
     89  CG        46.4070   44.0020   71.4330 C.ar  436  PHE436     -0.0203
     90  CD1       45.0200   43.9100   71.1770 C.ar  436  PHE436     -0.0042
     91  CD2       47.2140   42.8610   71.2570 C.ar  436  PHE436     -0.0042
     92  CE1       44.4230   42.6660   70.7630 C.ar  436  PHE436     -0.0003
     93  CE2       46.6590   41.6320   70.8380 C.ar  436  PHE436     -0.0003
     94  CZ        45.2570   41.5330   70.5960 C.ar  436  PHE436     -0.0000
     95  N         46.0760   49.0780   67.1090 N.3   438  LEU438     -0.1245
     96  CA        46.4480   49.2650   65.7220 C.3   438  LEU438      0.1561
     97  C         45.4740   50.2240   65.1290 C.2   438  LEU438      0.2260
     98  O         44.3030   50.1850   65.5430 O.2   438  LEU438     -0.2867
     99  CB        46.2800   47.9710   64.9360 C.3   438  LEU438      0.0270
    100  CG        47.0870   46.7540   65.3620 C.3   438  LEU438      0.0019
    101  CD1       46.7100   45.5690   64.4410 C.3   438  LEU438      0.0001
    102  CD2       48.6750   47.0060   65.3580 C.3   438  LEU438      0.0001
    103  N         52.1680   48.2280   60.1470 N.3   444  HIS444     -0.1241
    104  CA        52.4230   47.0670   60.9930 C.3   444  HIS444      0.1621
    105  C         53.3240   46.1090   60.2300 C.2   444  HIS444      0.2264
    106  O         52.9950   45.6980   59.1250 O.2   444  HIS444     -0.2867
    107  CB        51.1040   46.3890   61.2970 C.3   444  HIS444      0.0745
    108  CG        51.2430   45.0670   61.9720 C.ar  444  HIS444      0.0817
    109  ND1       51.3340   43.8720   61.2770 N.ar  444  HIS444     -0.2268
    110  CD2       51.3010   44.7470   63.2890 C.ar  444  HIS444      0.1154
    111  CE1       51.4030   42.8740   62.1430 C.ar  444  HIS444      0.1986
    112  NE2       51.3880   43.3770   63.3680 N.ar  444  HIS444     -0.2212
@<TRIPOS>BOND
     1    40    39    2
     2    39    38    1
     3    32    31    2
     4    37    38    1
     5    38    41    1
     6    31    30    1
     7    41    42    1
     8    30    33    1
     9    30    29    1
    10    24    23    2
    11    42    43   ar
    12    42    44   ar
    13    33    34    1
    14    43    45   ar
    15    29    23   am
    16    23    22    1
    17    21    22    1
    18    22    25    1
    19    44    47   ar
    20    44    46   ar
    21    34    35    1
    22    47    49   ar
    23    45    46   ar
    24   106   105    2
    25    35    36    1
    26    12    11    2
    27    46    48   ar
    28    25    26    1
    29   103   104    1
    30    26    27    1
    31   105   104    1
    32    11    10    1
    33    49    50   ar
    34    48    50   ar
    35   104   107    1
    36   109   108   ar
    37   109   111   ar
    38   107   108    1
    39    10    13    1
    40    10     9    1
    41   108   110   ar
    42    27    28    1
    43    13    14    1
    44   111   112   ar
    45   110   112   ar
    46    14    16   ar
    47    14    15   ar
    48    76    75    1
    49    16    18   ar
    50    15    17   ar
    51   101   100    1
    52    75    72    1
    53    99   100    1
    54    99    96    1
    55     4     3    2
    56    97    98    2
    57    97    96    1
    58   102   100    1
    59    18    19   ar
    60    17    19   ar
    61    96    95    1
    62     3     2    1
    63    19    20    1
    64    72    71    1
    65    72    73    1
    66    71    65   am
    67    83    81    1
    68    73    74    2
    69    73    77   am
    70     2     1    1
    71     2     5    1
    72    70    68   ar
    73    65    64    1
    74    65    66    2
    75    64    63    1
    76    64    67    1
    77    69    68   ar
    78    77    78    1
    79    68    67    1
    80     5     6    1
    81    81    82    1
    82    81    78    1
    83    78    79    1
    84    87    86    2
    85    62    61    1
    86     6     7   ar
    87     6     8   ar
    88    59    61   ar
    89    59    57   ar
    90    86    85    1
    91    61    60   ar
    92    79    80    2
    93    57    56   ar
    94    94    92   ar
    95    94    93   ar
    96    92    90   ar
    97    93    91   ar
    98    85    84    1
    99    85    88    1
   100    90    89   ar
   101    91    89   ar
   102    89    88    1
   103    60    58   ar
   104    54    53    2
   105    56    58   ar
   106    56    55    1
   107    53    52    1
   108    55    52    1
   109    52    51    1
