@<TRIPOS>MOLECULE
tmp/1wnbD00.pdb
 189 185 0 0 0
SMALL
GASTEIGER

@<TRIPOS>ATOM
      1  N         77.7520   42.6850   48.2550 N.3   145  ILE145     -0.1231
      2  CA        78.4280   41.9230   47.2150 C.3   145  ILE145      0.1692
      3  C         78.5030   42.6820   45.9020 C.2   145  ILE145      0.2592
      4  O         77.4910   42.9510   45.2430 O.2   145  ILE145     -0.2718
      5  CB        77.7850   40.5060   47.0420 C.3   145  ILE145      0.0266
      6  CG1       77.5250   39.7980   48.4050 C.3   145  ILE145      0.0019
      7  CG2       78.6610   39.6250   46.0740 C.3   145  ILE145      0.0020
      8  CD1       78.7120   39.3070   49.1110 C.3   145  ILE145      0.0001
      9  N         79.7210   43.0400   45.5190 N.am  146  ALA146     -0.1966
     10  CA        79.9020   43.8190   44.3210 C.3   146  ALA146      0.1713
     11  C         80.3860   42.9790   43.1310 C.2   146  ALA146      0.2458
     12  O         81.0960   41.9530   43.2940 O.2   146  ALA146     -0.2730
     13  CB        80.8190   45.0550   44.6020 C.3   146  ALA146      0.0333
     14  N         79.9860   43.4160   41.9380 N.am  147  PRO147     -0.2716
     15  CA        80.3520   42.7770   40.6680 C.3   147  PRO147      0.1536
     16  C         81.6490   43.3040   40.0260 C.2   147  PRO147      0.2598
     17  O         82.1940   44.3130   40.4720 O.2   147  PRO147     -0.2715
     18  CB        79.1800   43.1730   39.7480 C.3   147  PRO147      0.0310
     19  CG        78.7820   44.5470   40.2340 C.3   147  PRO147      0.0237
     20  CD        79.1210   44.5830   41.7220 C.3   147  PRO147      0.0939
     21  N         82.1100   42.6330   38.9670 N.am  148  TRP148     -0.1974
     22  CA        83.3330   43.0490   38.3010 C.3   148  TRP148      0.1640
     23  C         83.1600   44.1550   37.2190 C.2   148  TRP148      0.2290
     24  O         84.1270   44.7430   36.8030 O.2   148  TRP148     -0.2864
     25  CB        84.0610   41.8280   37.7430 C.3   148  TRP148      0.0576
     26  CG        83.1940   40.9010   36.9440 C.ar  148  TRP148      0.0006
     27  CD1       82.7050   39.6790   37.3540 C.ar  148  TRP148      0.0946
     28  CD2       82.6560   41.1230   35.6060 C.ar  148  TRP148      0.0152
     29  NE1       81.9350   39.1370   36.3470 N.ar  148  TRP148     -0.2442
     30  CE2       81.9000   39.9880   35.2690 C.ar  148  TRP148      0.0810
     31  CE3       82.7690   42.1540   34.6530 C.ar  148  TRP148      0.0012
     32  CZ2       81.2710   39.8480   34.0160 C.ar  148  TRP148      0.0191
     33  CZ3       82.1110   42.0140   33.3860 C.ar  148  TRP148      0.0001
     34  CH2       81.3760   40.8880   33.1020 C.ar  148  TRP148      0.0015
     35  N         82.2600   42.5980   50.1590 N.3   172  LYS172     -0.1231
     36  CA        83.0330   41.7280   49.2980 C.3   172  LYS172      0.1678
     37  C         83.0040   42.1380   47.8110 C.2   172  LYS172      0.2434
     38  O         82.0010   41.9690   47.1580 O.2   172  LYS172     -0.2733
     39  CB        82.6250   40.2610   49.4310 C.3   172  LYS172      0.0284
     40  CG        83.5950   39.3390   48.6850 C.3   172  LYS172      0.0035
     41  CD        83.1010   37.9210   48.5870 C.3   172  LYS172      0.0206
     42  CE        82.3700   37.7030   47.2820 C.3   172  LYS172      0.1093
     43  NZ        83.2120   38.0410   46.1110 N.3   172  LYS172     -0.1314
     44  N         84.1300   42.6030   47.2800 N.am  173  PRO173     -0.2718
     45  CA        84.2850   42.8790   45.8530 C.3   173  PRO173      0.1535
     46  C         84.3330   41.6010   45.0670 C.2   173  PRO173      0.2599
     47  O         84.6050   40.5210   45.6340 O.2   173  PRO173     -0.2715
     48  CB        85.6580   43.5320   45.7630 C.3   173  PRO173      0.0310
     49  CG        86.1530   43.6960   47.1450 C.3   173  PRO173      0.0237
     50  CD        85.3710   42.8400   48.0430 C.3   173  PRO173      0.0939
     51  N         84.0870   41.6800   43.7690 N.am  174  SER174     -0.1936
     52  CA        84.4280   40.5370   42.9240 C.3   174  SER174      0.2055
     53  C         85.9020   40.1570   43.1720 C.2   174  SER174      0.2643
     54  O         86.7550   41.0270   43.2980 O.2   174  SER174     -0.2714
     55  CB        84.2680   40.9210   41.4710 C.3   174  SER174      0.2130
     56  OG        84.7300   39.8860   40.6220 O.3   174  SER174     -0.2179
     57  N         86.1800   38.8600   43.2700 N.am  175  GLU175     -0.1963
     58  CA        87.5400   38.3490   43.3040 C.3   175  GLU175      0.1733
     59  C         88.3660   38.6940   42.0340 C.2   175  GLU175      0.2616
     60  O         89.5970   38.7620   42.0970 O.2   175  GLU175     -0.2715
     61  CB        87.5350   36.8240   43.5540 C.3   175  GLU175      0.0429
     62  CG        87.0000   35.9660   42.3910 C.3   175  GLU175      0.1163
     63  CD        85.4730   35.9350   42.2930 C.2   175  GLU175      0.3649
     64  OE1       84.6960   36.5970   43.0680 O.co2 175  GLU175     -0.2457
     65  OE2       85.0260   35.2350   41.3740 O.co2 175  GLU175     -0.2457
     66  N         87.6930   38.8600   40.8950 N.am  176  ILE176     -0.1977
     67  CA        88.3130   39.2820   39.6230 C.3   176  ILE176      0.1596
     68  C         88.8470   40.7120   39.7170 C.2   176  ILE176      0.2287
     69  O         89.8880   41.0090   39.1300 O.2   176  ILE176     -0.2864
     70  CB        87.2630   39.2030   38.4440 C.3   176  ILE176      0.0276
     71  CG1       86.4870   37.8740   38.4730 C.3   176  ILE176      0.0022
     72  CG2       87.9120   39.4980   37.0970 C.3   176  ILE176      0.0022
     73  CD1       87.3580   36.5600   38.2330 C.3   176  ILE176      0.0001
     74  N         86.5790   34.6100   46.6100 N.3   203  ARG203     -0.1231
     75  CA        85.5320   34.0940   45.7430 C.3   203  ARG203      0.1694
     76  C         84.1430   33.9560   46.4170 C.2   203  ARG203      0.2593
     77  O         84.0010   34.0080   47.6590 O.2   203  ARG203     -0.2718
     78  CB        85.9720   32.7440   45.1870 C.3   203  ARG203      0.0321
     79  CG        87.2480   32.8110   44.3060 C.3   203  ARG203      0.0489
     80  CD        87.9420   31.4550   44.0420 C.3   203  ARG203      0.2205
     81  NE        88.5880   31.0210   45.2710 N.pl3 203  ARG203     -0.0865
     82  CZ        89.1560   29.8340   45.4490 C.cat 203  ARG203      0.5346
     83  NH1       89.6790   29.5620   46.6340 N.pl3 203  ARG203      0.1354
     84  NH2       89.2120   28.9200   44.4460 N.pl3 203  ARG203      0.1354
     85  N         83.1410   33.7330   45.5770 N.am  204  GLY204     -0.1942
     86  CA        81.7780   33.4440   46.0130 C.3   204  GLY204      0.2014
     87  C         81.6250   32.2910   47.0120 C.2   204  GLY204      0.2639
     88  O         81.0460   32.4640   48.0680 O.2   204  GLY204     -0.2714
     89  N         82.1890   31.1350   46.6950 N.am  205  LYS205     -0.1963
     90  CA        82.0300   29.9020   47.5130 C.3   205  LYS205      0.1728
     91  C         82.8270   29.8640   48.8240 C.2   205  LYS205      0.2616
     92  O         82.3380   29.4150   49.8540 O.2   205  LYS205     -0.2715
     93  CB        82.4140   28.6720   46.6860 C.3   205  LYS205      0.0311
     94  CG        81.2300   27.8370   46.2790 C.3   205  LYS205      0.0038
     95  CD        81.5220   26.3340   46.4170 C.3   205  LYS205      0.0206
     96  CE        80.2340   25.5370   46.6860 C.3   205  LYS205      0.1093
     97  NZ        80.3620   24.6910   47.9160 N.3   205  LYS205     -0.1314
     98  N         84.0630   30.3130   48.7500 N.am  206  THR206     -0.1951
     99  CA        84.9380   30.3390   49.8940 C.3   206  THR206      0.1897
    100  C         84.7080   31.5760   50.7980 C.2   206  THR206      0.2313
    101  O         84.8870   31.4880   52.0130 O.2   206  THR206     -0.2863
    102  CB        86.4160   30.1810   49.4240 C.3   206  THR206      0.1794
    103  OG1       87.1660   31.3430   49.7840 O.3   206  THR206     -0.2208
    104  CG2       86.5230   30.2350   47.9070 C.3   206  THR206      0.0378
    105  N         81.9420   34.4230   49.9300 N.3   208  GLY208     -0.1210
    106  CA        80.6070   34.9580   49.8770 C.3   208  GLY208      0.1956
    107  C         79.6300   34.1760   50.7240 C.2   208  GLY208      0.2611
    108  O         78.8990   34.7770   51.5340 O.2   208  GLY208     -0.2717
    109  N         79.5960   32.8560   50.5060 N.am  209  ASP209     -0.1973
    110  CA        78.7740   31.9020   51.2710 C.3   209  ASP209      0.1709
    111  C         78.8560   32.0260   52.8240 C.2   209  ASP209      0.2293
    112  O         77.7990   32.0970   53.4440 O.2   209  ASP209     -0.2864
    113  CB        79.0630   30.4650   50.8510 C.3   209  ASP209      0.1436
    114  CG        78.1760   29.9820   49.7200 C.2   209  ASP209      0.3671
    115  OD1       77.0560   30.5340   49.5090 O.co2 209  ASP209     -0.2456
    116  OD2       78.5280   29.0140   48.9880 O.co2 209  ASP209     -0.2456
    117  N         77.3500   35.8080   53.6250 N.3   212  THR212     -0.1218
    118  CA        75.9190   36.0810   53.4840 C.3   212  THR212      0.1862
    119  C         75.0930   35.1980   54.3800 C.2   212  THR212      0.2287
    120  O         73.9750   35.5270   54.6440 O.2   212  THR212     -0.2866
    121  CB        75.4200   35.8400   52.0470 C.3   212  THR212      0.1770
    122  OG1       75.7830   34.5260   51.6450 O.3   212  THR212     -0.2211
    123  CG2       76.0750   36.7550   50.9950 C.3   212  THR212      0.0375
    124  N         73.1720   42.5560   46.6800 N.3   222  LEU222     -0.1231
    125  CA        73.8880   41.9620   45.5600 C.3   222  LEU222      0.1693
    126  C         73.6050   42.6660   44.2450 C.2   222  LEU222      0.2593
    127  O         72.4130   42.8450   43.8580 O.2   222  LEU222     -0.2718
    128  CB        73.4250   40.4970   45.3650 C.3   222  LEU222      0.0284
    129  CG        73.9160   39.9120   44.0200 C.3   222  LEU222      0.0019
    130  CD1       75.4680   39.8130   44.0290 C.3   222  LEU222      0.0001
    131  CD2       73.2740   38.5200   43.6100 C.3   222  LEU222      0.0001
    132  N         74.6740   43.0510   43.5250 N.am  223  THR223     -0.1939
    133  CA        74.5490   43.2760   42.0900 C.3   223  THR223      0.2028
    134  C         75.3750   42.1730   41.4190 C.2   223  THR223      0.2643
    135  O         76.5630   42.0470   41.7170 O.2   223  THR223     -0.2714
    136  CB        75.0270   44.7080   41.6740 C.3   223  THR223      0.1808
    137  OG1       74.1930   45.6740   42.2960 O.3   223  THR223     -0.2208
    138  CG2       74.7750   44.9730   40.2030 C.3   223  THR223      0.0379
    139  N         74.7730   41.3860   40.5370 N.am  224  GLY224     -0.1939
    140  CA        75.4760   40.3170   39.8080 C.3   224  GLY224      0.2014
    141  C         74.5190   39.5340   38.9090 C.2   224  GLY224      0.2639
    142  O         73.5270   40.1020   38.4730 O.2   224  GLY224     -0.2714
    143  N         74.7470   38.2430   38.6660 N.am  225  SER225     -0.1949
    144  CA        73.8610   37.4860   37.7550 C.3   225  SER225      0.1924
    145  C         72.5650   36.9920   38.4050 C.2   225  SER225      0.2314
    146  O         72.4810   36.9190   39.6520 O.2   225  SER225     -0.2863
    147  CB        74.5860   36.2770   37.1200 C.3   225  SER225      0.2116
    148  OG        74.8320   35.2890   38.0980 O.3   225  SER225     -0.2180
    149  N         71.7080   33.7970   38.4650 N.3   227  ALA227     -0.1231
    150  CA        72.0380   32.5750   39.2100 C.3   227  ALA227      0.1694
    151  C         72.5970   32.8510   40.6370 C.2   227  ALA227      0.2592
    152  O         72.3290   32.0740   41.5820 O.2   227  ALA227     -0.2718
    153  CB        72.9860   31.6940   38.4010 C.3   227  ALA227      0.0304
    154  N         73.3820   33.9280   40.7980 N.am  228  THR228     -0.1953
    155  CA        73.9350   34.3000   42.1080 C.3   228  THR228      0.1897
    156  C         72.7940   34.8510   42.9790 C.2   228  THR228      0.2313
    157  O         72.7280   34.5750   44.1940 O.2   228  THR228     -0.2863
    158  CB        75.0610   35.3300   41.9380 C.3   228  THR228      0.1794
    159  OG1       76.0910   34.7770   41.1310 O.3   228  THR228     -0.2208
    160  CG2       75.7810   35.6570   43.2610 C.3   228  THR228      0.0378
    161  N         70.7760   31.9990   44.1670 N.3   231  HIS231     -0.1226
    162  CA        71.5110   31.1870   45.1620 C.3   231  HIS231      0.1752
    163  C         71.5230   31.8630   46.5370 C.2   231  HIS231      0.2595
    164  O         71.3340   31.1910   47.5800 O.2   231  HIS231     -0.2718
    165  CB        72.9560   30.9450   44.7240 C.3   231  HIS231      0.0759
    166  CG        73.7860   30.2680   45.7610 C.ar  231  HIS231      0.0818
    167  ND1       74.7130   30.9360   46.5270 N.ar  231  HIS231     -0.2268
    168  CD2       73.7950   28.9860   46.1930 C.ar  231  HIS231      0.1154
    169  CE1       75.2850   30.0870   47.3660 C.ar  231  HIS231      0.1986
    170  NE2       74.7520   28.8960   47.1730 N.ar  231  HIS231     -0.2212
    171  N         71.7810   33.1850   46.5280 N.am  232  ILE232     -0.1980
    172  CA        71.7940   33.9670   47.7450 C.3   232  ILE232      0.1595
    173  C         70.3910   33.9230   48.3720 C.2   232  ILE232      0.2287
    174  O         70.2720   33.6110   49.5780 O.2   232  ILE232     -0.2864
    175  CB        72.3640   35.3980   47.5000 C.3   232  ILE232      0.0276
    176  CG1       73.8880   35.3160   47.3470 C.3   232  ILE232      0.0022
    177  CG2       71.9840   36.3680   48.6340 C.3   232  ILE232      0.0022
    178  CD1       74.6430   36.6790   47.2220 C.3   232  ILE232      0.0001
    179  N         82.1550   33.1660   26.8190 N.3   330  ARG330     -0.1245
    180  CA        80.7000   33.2900   27.0100 C.3   330  ARG330      0.1563
    181  C         80.0610   34.1730   25.9340 C.2   330  ARG330      0.2260
    182  O         79.1290   33.7290   25.2560 O.2   330  ARG330     -0.2867
    183  CB        80.4400   33.9170   28.3720 C.3   330  ARG330      0.0307
    184  CG        79.3920   33.2760   29.2740 C.3   330  ARG330      0.0489
    185  CD        79.1700   34.0830   30.6180 C.3   330  ARG330      0.2205
    186  NE        80.2450   33.6860   31.5370 N.pl3 330  ARG330     -0.0865
    187  CZ        80.9380   34.4850   32.3670 C.cat 330  ARG330      0.5346
    188  NH1       80.6780   35.8010   32.5010 N.pl3 330  ARG330      0.1354
    189  NH2       81.9000   33.9350   33.1020 N.pl3 330  ARG330      0.1354
@<TRIPOS>BOND
     1   182   181    2
     2   181   180    1
     3   179   180    1
     4   180   183    1
     5   183   184    1
     6   184   185    1
     7   185   186    1
     8   186   187    2
     9   187   188    1
    10   187   189    1
    11    34    33   ar
    12    34    32   ar
    13    33    31   ar
    14    32    30   ar
    15    31    28   ar
    16    30    28   ar
    17    30    29   ar
    18    28    26   ar
    19    29    27   ar
    20    24    23    2
    21    26    27   ar
    22    26    25    1
    23    72    70    1
    24   147   144    1
    25   147   148    1
    26    23    22    1
    27    25    22    1
    28   144   145    1
    29   144   143    1
    30    73    71    1
    31    22    21    1
    32   153   150    1
    33   145   146    2
    34    70    71    1
    35    70    67    1
    36   149   150    1
    37   142   141    2
    38   143   141   am
    39   141   140    1
    40    21    16   am
    41    69    68    2
    42   150   151    1
    43    67    68    1
    44    67    66    1
    45    18    19    1
    46    18    15    1
    47   140   139    1
    48    16    17    2
    49    16    15    1
    50   138   136    1
    51    19    20    1
    52   139   134   am
    53    56    55    1
    54   151   154   am
    55   151   152    2
    56    15    14    1
    57   154   155    1
    58    66    59   am
    59   159   158    1
    60    65    63   ar
    61   134   135    2
    62   134   133    1
    63    55    52    1
    64   136   133    1
    65   136   137    1
    66    20    14    1
    67   158   155    1
    68   158   160    1
    69    14    11   am
    70    59    60    2
    71    59    58    1
    72   133   132    1
    73   155   156    1
    74    63    62    1
    75    63    64   ar
    76    62    61    1
    77    52    53    1
    78    52    51    1
    79   156   157    2
    80    11    12    2
    81    11    10    1
    82    53    57   am
    83    53    54    2
    84    57    58    1
    85    58    61    1
    86   132   126   am
    87   131   129    1
    88    51    46   am
    89   127   126    2
    90   129   130    1
    91   129   128    1
    92    80    79    1
    93    80    81    1
    94   161   162    1
    95   126   125    1
    96    79    78    1
    97    10    13    1
    98    10     9    1
    99    84    82    1
   100   165   162    1
   101   165   166    1
   102    46    47    2
   103    46    45    1
   104   162   163    1
   105    78    75    1
   106     4     3    2
   107    81    82    2
   108   128   125    1
   109    82    83    1
   110     9     3   am
   111   125   124    1
   112    85    86    1
   113    85    76   am
   114    75    76    1
   115    75    74    1
   116   166   168   ar
   117   166   167   ar
   118    48    45    1
   119    48    49    1
   120    45    44    1
   121     3     2    1
   122    86    87    1
   123     7     5    1
   124    43    42    1
   125   168   170   ar
   126    94    95    1
   127    94    93    1
   128    95    96    1
   129    76    77    2
   130   167   169   ar
   131   171   163   am
   132   171   172    1
   133   163   164    2
   134    93    90    1
   135    96    97    1
   136    89    87   am
   137    89    90    1
   138    87    88    2
   139     5     2    1
   140     5     6    1
   141    49    50    1
   142    38    37    2
   143   170   169   ar
   144     2     1    1
   145   178   176    1
   146    44    37   am
   147    44    50    1
   148    42    41    1
   149   176   175    1
   150   175   172    1
   151   175   177    1
   152    90    91    1
   153   172   173    1
   154    37    36    1
   155   104   102    1
   156   173   174    2
   157     6     8    1
   158    41    40    1
   159    40    39    1
   160    98    91   am
   161    98    99    1
   162    91    92    2
   163   116   114   ar
   164    36    39    1
   165    36    35    1
   166   102   103    1
   167   102    99    1
   168   115   114   ar
   169   114   113    1
   170   106   105    1
   171   106   107    1
   172    99   100    1
   173   109   107   am
   174   109   110    1
   175   107   108    2
   176   100   101    2
   177   113   110    1
   178   123   121    1
   179   110   111    1
   180   122   121    1
   181   121   118    1
   182   111   112    2
   183   118   117    1
   184   118   119    1
   185   119   120    2
