@<TRIPOS>MOLECULE
tmp/1wnuA00.pdb
 89 81 0 0 0
SMALL
GASTEIGER

@<TRIPOS>ATOM
      1  N         14.7330   72.9590   14.1130 N.3     8  HIS8       -0.1241
      2  CA        13.7740   72.5270   15.1240 C.3     8  HIS8        0.1621
      3  C         12.5520   71.9170   14.4540 C.2     8  HIS8        0.2264
      4  O         12.0030   70.9180   14.9200 O.2     8  HIS8       -0.2867
      5  CB        13.3080   73.6830   16.0020 C.3     8  HIS8        0.0745
      6  CG        12.1810   73.3010   16.9140 C.ar    8  HIS8        0.0817
      7  ND1       12.3470   72.4350   17.9750 N.ar    8  HIS8       -0.2268
      8  CD2       10.8590   73.6000   16.8730 C.ar    8  HIS8        0.1154
      9  CE1       11.1780   72.2160   18.5470 C.ar    8  HIS8        0.1986
     10  NE2       10.2590   72.9100   17.8990 N.ar    8  HIS8       -0.2212
     11  N         12.8090   68.3800   13.2890 N.3    11  LEU11      -0.1231
     12  CA        12.6020   67.4050   14.3540 C.3    11  LEU11       0.1693
     13  C         11.2150   66.7670   14.2790 C.2    11  LEU11       0.2592
     14  O         11.0780   65.5430   14.3760 O.2    11  LEU11      -0.2718
     15  CB        12.8060   68.0670   15.7270 C.3    11  LEU11       0.0284
     16  CG        14.2220   68.0630   16.3130 C.3    11  LEU11       0.0019
     17  CD1       14.3120   68.9830   17.4990 C.3    11  LEU11       0.0001
     18  CD2       14.5730   66.6550   16.7250 C.3    11  LEU11       0.0001
     19  N         10.1910   67.5970   14.0990 N.am   12  HIS12      -0.1976
     20  CA         8.8230   67.0990   13.9990 C.3    12  HIS12       0.1656
     21  C          8.6660   66.2750   12.7320 C.2    12  HIS12       0.2291
     22  O          7.9150   65.2990   12.6970 O.2    12  HIS12      -0.2864
     23  CB         7.8220   68.2470   13.9680 C.3    12  HIS12       0.0771
     24  CG         7.6800   68.9680   15.2690 C.ar   12  HIS12       0.0820
     25  ND1        6.7750   68.5860   16.2350 N.ar   12  HIS12      -0.2267
     26  CD2        8.2870   70.0820   15.7410 C.ar   12  HIS12       0.1154
     27  CE1        6.8260   69.4400   17.2440 C.ar   12  HIS12       0.1986
     28  NE2        7.7350   70.3570   16.9670 N.ar   12  HIS12      -0.2212
     29  N         10.5690   62.9730   13.3240 N.3    15  LYS15      -0.1245
     30  CA         9.8210   62.1310   14.2580 C.3    15  LYS15       0.1561
     31  C          8.7460   61.3530   13.5050 C.2    15  LYS15       0.2260
     32  O          8.6020   60.1430   13.6760 O.2    15  LYS15      -0.2867
     33  CB         9.1430   62.9810   15.3280 C.3    15  LYS15       0.0271
     34  CG         9.0350   62.3060   16.6630 C.3    15  LYS15       0.0035
     35  CD         8.4290   60.9280   16.5710 C.3    15  LYS15       0.0206
     36  CE         8.2590   60.3180   17.9580 C.3    15  LYS15       0.1093
     37  NZ         7.4360   61.1650   18.8840 N.3    15  LYS15      -0.1314
     38  N          9.1570   60.4150   22.4840 N.3    29  THR29      -0.1218
     39  CA        10.3950   61.1680   22.4570 C.3    29  THR29       0.1862
     40  C         10.9610   61.3080   23.8560 C.2    29  THR29       0.2287
     41  O         10.2290   61.5730   24.8100 O.2    29  THR29      -0.2866
     42  CB        10.1780   62.5480   21.8700 C.3    29  THR29       0.1770
     43  OG1        9.6020   62.4130   20.5650 O.3    29  THR29      -0.2211
     44  CG2       11.4990   63.2870   21.7630 C.3    29  THR29       0.0375
     45  N         15.3730   66.1860   22.8340 N.3    32  THR32      -0.1218
     46  CA        15.8200   66.7280   21.5620 C.3    32  THR32       0.1862
     47  C         16.7870   67.8640   21.7820 C.2    32  THR32       0.2287
     48  O         16.7390   68.5610   22.7960 O.2    32  THR32      -0.2866
     49  CB        14.6670   67.2740   20.6770 C.3    32  THR32       0.1770
     50  OG1       13.9350   68.2630   21.4010 O.3    32  THR32      -0.2211
     51  CG2       13.7360   66.1710   20.2400 C.3    32  THR32       0.0375
     52  N         17.4370   63.8130   17.6300 N.3    41  LEU41      -0.1245
     53  CA        16.1550   63.3320   18.1280 C.3    41  LEU41       0.1561
     54  C         16.3510   62.0000   18.8360 C.2    41  LEU41       0.2260
     55  O         16.7460   61.0140   18.2050 O.2    41  LEU41      -0.2867
     56  CB        15.1660   63.1210   16.9810 C.3    41  LEU41       0.0270
     57  CG        13.9160   62.3340   17.4000 C.3    41  LEU41       0.0019
     58  CD1       13.0750   63.2070   18.3330 C.3    41  LEU41       0.0001
     59  CD2       13.1220   61.9010   16.1750 C.3    41  LEU41       0.0001
     60  N          5.3180   63.6510   25.0920 N.3    89  ASP89      -0.1239
     61  CA         6.6040   62.9680   25.0370 C.3    89  ASP89       0.1674
     62  C          6.7030   62.1350   26.2990 C.2    89  ASP89       0.2266
     63  O          5.7420   62.0600   27.0560 O.2    89  ASP89      -0.2867
     64  CB         7.7570   63.9770   24.9940 C.3    89  ASP89       0.1410
     65  CG         7.7260   64.8440   23.7460 C.2    89  ASP89       0.3668
     66  OD1        7.4730   64.2870   22.6470 O.co2  89  ASP89      -0.2456
     67  OD2        7.9640   66.0710   23.8620 O.co2  89  ASP89      -0.2456
     68  N          2.6770   64.0470   12.6580 N.3   109  ASN109     -0.1240
     69  CA         3.1540   64.3060   14.0010 C.3   109  ASN109      0.1653
     70  C          2.3390   65.3720   14.7200 C.2   109  ASN109      0.2266
     71  O          1.9910   66.3970   14.1430 O.2   109  ASN109     -0.2867
     72  CB         4.6040   64.7640   13.9480 C.3   109  ASN109      0.1155
     73  CG         5.2400   64.8300   15.3160 C.2   109  ASN109      0.2627
     74  OD1        5.7300   65.8820   15.7490 O.2   109  ASN109     -0.2716
     75  ND2        5.2360   63.7030   16.0130 N.am  109  ASN109     -0.0877
     76  N          2.4540   67.3570   18.5260 N.3   111  ASN111     -0.1240
     77  CA         3.2520   67.5310   19.7250 C.3   111  ASN111      0.1653
     78  C          3.0250   68.8430   20.4310 C.2   111  ASN111      0.2266
     79  O          3.0480   69.8950   19.8080 O.2   111  ASN111     -0.2867
     80  CB         4.7330   67.4110   19.3630 C.3   111  ASN111      0.1155
     81  CG         5.6560   67.7640   20.5200 C.2   111  ASN111      0.2627
     82  OD1        6.0250   68.9300   20.7120 O.2   111  ASN111     -0.2716
     83  ND2        6.0340   66.7540   21.3020 N.am  111  ASN111     -0.0877
     84  N          4.1240   71.7770   21.7550 N.3   113  CYS113     -0.1235
     85  CA         5.3990   72.4780   21.6610 C.3   113  CYS113      0.1677
     86  C          5.1860   73.9790   21.6860 C.2   113  CYS113      0.2270
     87  O          4.2800   74.5020   21.0340 O.2   113  CYS113     -0.2867
     88  CB         6.1520   72.0900   20.3790 C.3   113  CYS113      0.0956
     89  SG         7.9060   72.5060   20.4330 S.3   113  CYS113     -0.0801
@<TRIPOS>BOND
     1    68    69    1
     2    22    21    2
     3    21    20    1
     4    11    12    1
     5    29    30    1
     6    31    32    2
     7    31    30    1
     8    72    69    1
     9    72    73    1
    10    23    20    1
    11    23    24    1
    12    20    19    1
    13    69    70    1
    14    19    13   am
    15     1     2    1
    16    71    70    2
    17    30    33    1
    18    13    12    1
    19    13    14    2
    20    12    15    1
    21     3     4    2
    22     3     2    1
    23     2     5    1
    24    24    26   ar
    25    24    25   ar
    26    73    74    2
    27    73    75   am
    28    33    34    1
    29    15    16    1
    30    26    28   ar
    31     5     6    1
    32    59    57    1
    33    25    27   ar
    34    16    18    1
    35    16    17    1
    36    35    34    1
    37    35    36    1
    38     8     6   ar
    39     8    10   ar
    40     6     7   ar
    41    28    27   ar
    42    56    57    1
    43    56    53    1
    44    57    58    1
    45    52    53    1
    46    10     9   ar
    47    36    37    1
    48     7     9   ar
    49    53    54    1
    50    55    54    2
    51    76    77    1
    52    80    77    1
    53    80    81    1
    54    77    78    1
    55    79    78    2
    56    51    49    1
    57    88    89    1
    58    88    85    1
    59    81    82    2
    60    81    83   am
    61    43    42    1
    62    49    50    1
    63    49    46    1
    64    87    86    2
    65    46    47    1
    66    46    45    1
    67    85    86    1
    68    85    84    1
    69    44    42    1
    70    47    48    2
    71    42    39    1
    72    39    38    1
    73    39    40    1
    74    66    65   ar
    75    65    67   ar
    76    65    64    1
    77    40    41    2
    78    64    61    1
    79    61    60    1
    80    61    62    1
    81    62    63    2
