@<TRIPOS>MOLECULE
tmp/1wo2A00.pdb
 153 149 0 0 0
SMALL
GASTEIGER

@<TRIPOS>ATOM
      1  N         24.1720   23.3650   57.7480 N.3    57  TRP57      -0.1227
      2  CA        24.5470   22.9620   56.4010 C.3    57  TRP57       0.1737
      3  C         25.5050   21.7700   56.4690 C.2    57  TRP57       0.2595
      4  O         25.4080   20.8430   55.6630 O.2    57  TRP57      -0.2718
      5  CB        25.1940   24.1290   55.6330 C.3    57  TRP57       0.0564
      6  CG        26.4490   24.6740   56.2630 C.ar   57  TRP57       0.0003
      7  CD1       26.5410   25.7240   57.1350 C.ar   57  TRP57       0.0946
      8  CD2       27.7840   24.1710   56.1020 C.ar   57  TRP57       0.0152
      9  NE1       27.8440   25.8980   57.5330 N.ar   57  TRP57      -0.2442
     10  CE2       28.6300   24.9580   56.9130 C.ar   57  TRP57       0.0810
     11  CE3       28.3480   23.1280   55.3510 C.ar   57  TRP57       0.0012
     12  CZ2       30.0140   24.7380   56.9990 C.ar   57  TRP57       0.0191
     13  CZ3       29.7220   22.9060   55.4360 C.ar   57  TRP57       0.0001
     14  CH2       30.5380   23.7100   56.2570 C.ar   57  TRP57       0.0015
     15  N         26.3600   21.7560   57.4950 N.am   58  TRP58      -0.1976
     16  CA        27.3540   20.6950   57.6450 C.3    58  TRP58       0.1640
     17  C         26.9130   19.2870   58.0200 C.2    58  TRP58       0.2290
     18  O         27.7440   18.3720   58.0290 O.2    58  TRP58      -0.2864
     19  CB        28.5450   21.1470   58.5050 C.3    58  TRP58       0.0576
     20  CG        28.2110   21.8030   59.8200 C.ar   58  TRP58       0.0006
     21  CD1       28.3020   23.1330   60.1130 C.ar   58  TRP58       0.0946
     22  CD2       27.8190   21.1500   61.0390 C.ar   58  TRP58       0.0152
     23  NE1       28.0010   23.3500   61.4370 N.ar   58  TRP58      -0.2442
     24  CE2       27.6990   22.1500   62.0300 C.ar   58  TRP58       0.0810
     25  CE3       27.5630   19.8140   61.3910 C.ar   58  TRP58       0.0012
     26  CZ2       27.3330   21.8620   63.3520 C.ar   58  TRP58       0.0191
     27  CZ3       27.1990   19.5250   62.7080 C.ar   58  TRP58       0.0001
     28  CH2       27.0890   20.5480   63.6710 C.ar   58  TRP58       0.0015
     29  N         27.7400   16.4970   55.5640 N.3    61  TYR61      -0.1227
     30  CA        29.0860   15.9460   55.4720 C.3    61  TYR61       0.1736
     31  C         29.2910   14.8210   56.4790 C.2    61  TYR61       0.2595
     32  O         30.4190   14.4690   56.8260 O.2    61  TYR61      -0.2718
     33  CB        30.1370   17.0510   55.6090 C.3    61  TYR61       0.0548
     34  CG        30.1380   17.9280   54.3830 C.ar   61  TYR61      -0.0200
     35  CD1       29.4100   19.1180   54.3550 C.ar   61  TYR61      -0.0009
     36  CD2       30.7620   17.5060   53.2050 C.ar   61  TYR61      -0.0009
     37  CE1       29.2920   19.8610   53.1830 C.ar   61  TYR61       0.0417
     38  CE2       30.6480   18.2420   52.0270 C.ar   61  TYR61       0.0417
     39  CZ        29.9090   19.4160   52.0240 C.ar   61  TYR61       0.1957
     40  OH        29.7560   20.1240   50.8560 O.3    61  TYR61      -0.2866
     41  N         28.1720   14.2580   56.9330 N.am   62  GLN62      -0.1979
     42  CA        28.1630   13.1420   57.8720 C.3    62  GLN62       0.1601
     43  C         27.2670   12.0470   57.2960 C.2    62  GLN62       0.2287
     44  O         26.1070   11.9010   57.6870 O.2    62  GLN62      -0.2864
     45  CB        27.6410   13.5850   59.2410 C.3    62  GLN62       0.0394
     46  CG        28.6050   14.4750   60.0080 C.3    62  GLN62       0.0908
     47  CD        28.1430   14.7430   61.4220 C.2    62  GLN62       0.2608
     48  OE1       27.8410   13.8150   62.1720 O.2    62  GLN62      -0.2717
     49  NE2       28.0920   16.0190   61.7970 N.am   62  GLN62      -0.0878
     50  N         34.8250    9.5010   55.2310 N.3   100  HIS100     -0.1241
     51  CA        34.2310    9.1550   56.5160 C.3   100  HIS100      0.1621
     52  C         32.7210    8.9770   56.4710 C.2   100  HIS100      0.2264
     53  O         32.0760    9.1960   55.4390 O.2   100  HIS100     -0.2867
     54  CB        34.5260   10.3170   57.4750 C.3   100  HIS100      0.0745
     55  CG        34.2320   11.6650   56.8830 C.ar  100  HIS100      0.0817
     56  ND1       32.9830   12.2490   56.9350 N.ar  100  HIS100     -0.2268
     57  CD2       35.0070   12.5100   56.1650 C.ar  100  HIS100      0.1154
     58  CE1       33.0010   13.3900   56.2690 C.ar  100  HIS100      0.1986
     59  NE2       34.2200   13.5730   55.7930 N.ar  100  HIS100     -0.2212
     60  N         29.6110   11.5650   62.6950 N.3   103  GLY103     -0.1225
     61  CA        30.3890   11.7910   63.9030 C.3   103  GLY103      0.1811
     62  C         30.3760   10.5820   64.8240 C.2   103  GLY103      0.2280
     63  O         29.3360    9.9610   65.0350 O.2   103  GLY103     -0.2866
     64  N         30.5440   10.5270   67.8640 N.3   105  GLY105     -0.1225
     65  CA        29.8020   10.8230   69.0770 C.3   105  GLY105      0.1811
     66  C         28.2990   10.8770   68.8790 C.2   105  GLY105      0.2280
     67  O         27.5520   11.0930   69.8320 O.2   105  GLY105     -0.2866
     68  N         38.8380   13.2360   61.5550 N.3   161  LEU161     -0.1231
     69  CA        38.7770   14.6550   61.2200 C.3   161  LEU161      0.1693
     70  C         37.5620   15.1440   62.0020 C.2   161  LEU161      0.2592
     71  O         36.4480   14.6800   61.7530 O.2   161  LEU161     -0.2718
     72  CB        38.5140   14.8230   59.7170 C.3   161  LEU161      0.0284
     73  CG        38.7870   16.1330   58.9660 C.3   161  LEU161      0.0019
     74  CD1       37.7350   16.3060   57.8730 C.3   161  LEU161      0.0001
     75  CD2       38.8080   17.3370   59.8780 C.3   161  LEU161      0.0001
     76  N         37.7800   16.0620   62.9430 N.am  162  VAL162     -0.1966
     77  CA        36.7210   16.6070   63.8060 C.3   162  VAL162      0.1727
     78  C         35.7330   15.5560   64.3320 C.2   162  VAL162      0.2617
     79  O         34.5190   15.7390   64.2820 O.2   162  VAL162     -0.2715
     80  CB        35.9700   17.8430   63.1800 C.3   162  VAL162      0.0290
     81  CG1       36.9380   19.0110   63.0040 C.3   162  VAL162      0.0023
     82  CG2       35.3050   17.4940   61.8470 C.3   162  VAL162      0.0023
     83  N         36.2770   14.4350   64.8010 N.am  163  GLY163     -0.1940
     84  CA        35.4630   13.3660   65.3550 C.3   163  GLY163      0.2014
     85  C         34.7060   12.4790   64.3790 C.2   163  GLY163      0.2638
     86  O         33.9430   11.6210   64.8090 O.2   163  GLY163     -0.2714
     87  N         34.9290   12.6630   63.0820 N.am  164  LEU164     -0.1977
     88  CA        34.2440   11.8710   62.0580 C.3   164  LEU164      0.1596
     89  C         34.8200   10.4580   61.9230 C.2   164  LEU164      0.2287
     90  O         36.0360   10.2850   61.8320 O.2   164  LEU164     -0.2864
     91  CB        34.3170   12.5930   60.7060 C.3   164  LEU164      0.0297
     92  CG        33.5990   13.9420   60.6000 C.3   164  LEU164      0.0022
     93  CD1       34.0910   14.6800   59.3630 C.3   164  LEU164      0.0001
     94  CD2       32.0840   13.7380   60.5600 C.3   164  LEU164      0.0001
     95  N         33.5280   15.9080   43.0240 N.3   194  ARG194     -0.1245
     96  CA        34.3150   16.7660   43.8920 C.3   194  ARG194      0.1563
     97  C         34.6520   15.7520   44.9840 C.2   194  ARG194      0.2260
     98  O         33.7430   15.2550   45.6570 O.2   194  ARG194     -0.2867
     99  CB        33.4550   17.8670   44.5170 C.3   194  ARG194      0.0307
    100  CG        34.1720   18.6200   45.6360 C.3   194  ARG194      0.0489
    101  CD        33.2110   19.3380   46.5730 C.3   194  ARG194      0.2205
    102  NE        33.9200   20.1170   47.5900 N.pl3 194  ARG194     -0.0865
    103  CZ        33.9800   19.8110   48.8860 C.cat 194  ARG194      0.5346
    104  NH1       33.3680   18.7360   49.3620 N.pl3 194  ARG194      0.1354
    105  NH2       34.6930   20.5700   49.7060 N.pl3 194  ARG194      0.1354
    106  N         35.5220   15.0790   48.3380 N.3   196  ASP196     -0.1225
    107  CA        35.5520   15.7360   49.6390 C.3   196  ASP196      0.1805
    108  C         36.6890   15.2630   50.5420 C.2   196  ASP196      0.2597
    109  O         37.0400   14.0840   50.5430 O.2   196  ASP196     -0.2718
    110  CB        34.2090   15.5150   50.3480 C.3   196  ASP196      0.1424
    111  CG        34.1670   16.1290   51.7300 C.2   196  ASP196      0.3668
    112  OD1       34.2360   15.3820   52.7270 O.co2 196  ASP196     -0.2456
    113  OD2       34.0760   17.3670   51.8170 O.co2 196  ASP196     -0.2456
    114  N         37.2620   16.1990   51.2970 N.am  197  ALA197     -0.1979
    115  CA        38.3350   15.9120   52.2490 C.3   197  ALA197      0.1597
    116  C         39.4450   14.9930   51.7290 C.2   197  ALA197      0.2287
    117  O         39.9110   14.1040   52.4530 O.2   197  ALA197     -0.2864
    118  CB        37.7370   15.3340   53.5360 C.3   197  ALA197      0.0319
    119  N         39.3590   17.9320   46.6340 N.3   232  GLU232     -0.1245
    120  CA        39.4090   19.0580   47.5580 C.3   232  GLU232      0.1567
    121  C         40.5280   18.8650   48.5730 C.2   232  GLU232      0.2260
    122  O         40.3890   18.1180   49.5440 O.2   232  GLU232     -0.2867
    123  CB        38.0620   19.2550   48.2630 C.3   232  GLU232      0.0388
    124  CG        37.9360   20.5890   49.0140 C.3   232  GLU232      0.1160
    125  CD        37.9340   20.4400   50.5330 C.2   232  GLU232      0.3649
    126  OE1       37.7510   21.4620   51.2300 O.co2 232  GLU232     -0.2457
    127  OE2       38.1080   19.3090   51.0350 O.co2 232  GLU232     -0.2457
    128  N         43.0500   21.2110   50.8140 N.3   234  ILE234     -0.1245
    129  CA        43.3740   22.5600   51.2560 C.3   234  ILE234      0.1561
    130  C         44.8800   22.6120   51.5030 C.2   234  ILE234      0.2260
    131  O         45.3870   22.0030   52.4490 O.2   234  ILE234     -0.2867
    132  CB        42.6350   22.9520   52.5620 C.3   234  ILE234      0.0252
    133  CG1       41.1240   22.9790   52.3350 C.3   234  ILE234      0.0019
    134  CG2       43.1120   24.3160   53.0410 C.3   234  ILE234      0.0019
    135  CD1       40.3160   23.1850   53.6090 C.3   234  ILE234      0.0001
    136  N         31.9760   27.0710   49.7190 N.3   298  HIS298     -0.1226
    137  CA        30.9940   27.0250   50.8030 C.3   298  HIS298      0.1752
    138  C         31.5870   27.1280   52.2120 C.2   298  HIS298      0.2596
    139  O         30.9630   27.6850   53.1200 O.2   298  HIS298     -0.2718
    140  CB        30.1220   25.7660   50.6820 C.3   298  HIS298      0.0759
    141  CG        30.8290   24.4920   51.0390 C.ar  298  HIS298      0.0818
    142  ND1       31.6760   23.8390   50.1690 N.ar  298  HIS298     -0.2268
    143  CD2       30.8110   23.7530   52.1730 C.ar  298  HIS298      0.1154
    144  CE1       32.1450   22.7480   50.7500 C.ar  298  HIS298      0.1986
    145  NE2       31.6390   22.6750   51.9690 N.ar  298  HIS298     -0.2212
    146  N         32.7970   26.5990   52.3840 N.am  299  ASP299     -0.1974
    147  CA        33.4920   26.6300   53.6720 C.3   299  ASP299      0.1709
    148  C         34.0700   27.9950   54.0060 C.2   299  ASP299      0.2293
    149  O         33.6690   28.6360   54.9800 O.2   299  ASP299     -0.2864
    150  CB        34.6590   25.6350   53.6940 C.3   299  ASP299      0.1436
    151  CG        34.2350   24.2270   54.0160 C.2   299  ASP299      0.3671
    152  OD1       34.9730   23.3040   53.6210 O.co2 299  ASP299     -0.2456
    153  OD2       33.1940   24.0350   54.6780 O.co2 299  ASP299     -0.2456
@<TRIPOS>BOND
     1    95    96    1
     2    96    99    1
     3    96    97    1
     4    99   100    1
     5    97    98    2
     6   100   101    1
     7   101   102    1
     8   119   120    1
     9   120   123    1
    10   120   121    1
    11   102   103    2
    12   123   124    1
    13   106   107    1
    14   121   122    2
    15   103   104    1
    16   103   105    1
    17   124   125    1
    18   107   110    1
    19   107   108    1
    20   136   137    1
    21   142   144   ar
    22   142   141   ar
    23   110   111    1
    24   125   127   ar
    25   125   126   ar
    26   108   109    2
    27   108   114   am
    28   140   137    1
    29   140   141    1
    30   144   145   ar
    31   137   138    1
    32   128   129    1
    33    40    39    1
    34   141   143   ar
    35   129   130    1
    36   129   132    1
    37   114   115    1
    38   130   131    2
    39   116   115    1
    40   116   117    2
    41   111   113   ar
    42   111   112   ar
    43   145   143   ar
    44    39    38   ar
    45    39    37   ar
    46    38    36   ar
    47   138   146   am
    48   138   139    2
    49   115   118    1
    50   133   132    1
    51   133   135    1
    52   146   147    1
    53   132   134    1
    54    37    35   ar
    55    36    34   ar
    56   152   151   ar
    57   147   150    1
    58   147   148    1
    59   150   151    1
    60   148   149    2
    61   151   153   ar
    62    35    34   ar
    63    34    33    1
    64    50    51    1
    65    11    13   ar
    66    11     8   ar
    67    13    14   ar
    68    53    52    2
    69    30    29    1
    70    30    33    1
    71    30    31    1
    72     5     6    1
    73     5     2    1
    74     4     3    2
    75    59    57   ar
    76    59    58   ar
    77     8     6   ar
    78     8    10   ar
    79    57    55   ar
    80    14    12   ar
    81     6     7   ar
    82    58    56   ar
    83     2     3    1
    84     2     1    1
    85     3    15   am
    86    52    51    1
    87    31    32    2
    88    31    41   am
    89    51    54    1
    90    55    56   ar
    91    55    54    1
    92    10    12   ar
    93    10     9   ar
    94    41    42    1
    95     7     9   ar
    96    43    44    2
    97    43    42    1
    98    15    16    1
    99    16    17    1
   100    16    19    1
   101    42    45    1
   102    74    73    1
   103    17    18    2
   104    19    20    1
   105    73    72    1
   106    73    75    1
   107    45    46    1
   108    93    92    1
   109    72    69    1
   110    20    21   ar
   111    20    22   ar
   112    46    47    1
   113    21    23   ar
   114    94    92    1
   115    92    91    1
   116    91    88    1
   117    22    25   ar
   118    22    24   ar
   119    69    68    1
   120    69    70    1
   121    25    27   ar
   122    47    49   am
   123    47    48    2
   124    23    24   ar
   125    71    70    2
   126    90    89    2
   127    82    80    1
   128    89    88    1
   129    70    76   am
   130    24    26   ar
   131    88    87    1
   132    60    61    1
   133    27    28   ar
   134    76    77    1
   135    81    80    1
   136    87    85   am
   137    80    77    1
   138    26    28   ar
   139    77    78    1
   140    61    62    1
   141    79    78    2
   142    78    83   am
   143    85    86    2
   144    85    84    1
   145    83    84    1
   146    62    63    2
   147    64    65    1
   148    66    65    1
   149    66    67    2
