@<TRIPOS>MOLECULE
tmp/1wofB00.pdb
 226 224 0 0 0
SMALL
GASTEIGER

@<TRIPOS>ATOM
      1  N         80.7570  -10.5840   53.0360 N.3    26  THR26      -0.1203
      2  CA        82.1140  -10.7540   52.5230 C.3    26  THR26       0.1994
      3  C         82.1390  -10.7740   50.9930 C.2    26  THR26       0.2619
      4  O         83.1020  -11.2510   50.3910 O.2    26  THR26      -0.2717
      5  CB        82.7630  -12.0670   53.0290 C.3    26  THR26       0.1784
      6  OG1       82.0970  -13.1930   52.4440 O.3    26  THR26      -0.2211
      7  CG2       82.6750  -12.1570   54.5440 C.3    26  THR26       0.0376
      8  N         81.0860  -10.2570   50.3650 N.am   27  THR27      -0.1938
      9  CA        81.0260  -10.2290   48.9060 C.3    27  THR27       0.2028
     10  C         81.2040   -8.8070   48.3840 C.2    27  THR27       0.2643
     11  O         80.4770   -7.8880   48.7730 O.2    27  THR27      -0.2714
     12  CB        79.6800  -10.7610   48.3820 C.3    27  THR27       0.1808
     13  OG1       78.6570   -9.7890   48.6340 O.3    27  THR27      -0.2208
     14  CG2       79.3140  -12.0580   49.0810 C.3    27  THR27       0.0379
     15  N         82.1750   -8.6360   47.4960 N.am   28  THR28      -0.1936
     16  CA        82.4590   -7.3350   46.9100 C.3    28  THR28       0.2028
     17  C         82.3530   -7.3990   45.3940 C.2    28  THR28       0.2642
     18  O         82.9510   -8.2600   44.7600 O.2    28  THR28      -0.2714
     19  CB        83.8870   -6.8630   47.2660 C.3    28  THR28       0.1808
     20  OG1       83.9690   -6.6040   48.6700 O.3    28  THR28      -0.2208
     21  CG2       84.2390   -5.6040   46.5040 C.3    28  THR28       0.0379
     22  N         81.5820   -6.4850   44.8210 N.am   29  LEU29      -0.1977
     23  CA        81.4310   -6.4160   43.3780 C.3    29  LEU29       0.1596
     24  C         81.3280   -4.9570   42.9600 C.2    29  LEU29       0.2287
     25  O         81.4870   -4.0600   43.7910 O.2    29  LEU29      -0.2864
     26  CB        80.2100   -7.2230   42.9200 C.3    29  LEU29       0.0297
     27  CG        78.9200   -7.1660   43.7390 C.3    29  LEU29       0.0022
     28  CD1       78.3400   -5.7600   43.7160 C.3    29  LEU29       0.0001
     29  CD2       77.9280   -8.1700   43.1720 C.3    29  LEU29       0.0001
     30  N         72.5340  -10.0280   44.1380 N.3    43  HIS43      -0.1241
     31  CA        73.1650  -11.1810   44.7580 C.3    43  HIS43       0.1621
     32  C         74.3400  -10.8100   45.6620 C.2    43  HIS43       0.2264
     33  O         74.9480  -11.6800   46.2790 O.2    43  HIS43      -0.2867
     34  CB        73.5880  -12.2380   43.7190 C.3    43  HIS43       0.0745
     35  CG        74.7270  -11.8290   42.8340 C.ar   43  HIS43       0.0817
     36  ND1       74.5460  -11.4290   41.5260 N.ar   43  HIS43      -0.2268
     37  CD2       76.0660  -11.8410   43.0400 C.ar   43  HIS43       0.1154
     38  CE1       75.7230  -11.2180   40.9630 C.ar   43  HIS43       0.1986
     39  NE2       76.6630  -11.4620   41.8600 N.ar   43  HIS43      -0.2212
     40  N         73.9290  -12.1820   49.0490 N.3    46  CYS46      -0.1235
     41  CA        73.9360  -13.6270   49.2550 C.3    46  CYS46       0.1677
     42  C         75.1630  -14.1200   50.0050 C.2    46  CYS46       0.2270
     43  O         76.2510  -13.5690   49.8660 O.2    46  CYS46      -0.2867
     44  CB        73.8970  -14.3660   47.9150 C.3    46  CYS46       0.0956
     45  SG        72.3780  -14.2140   46.9730 S.3    46  CYS46      -0.0801
     46  N         73.2710  -19.3080   47.6960 N.3    51  MET51      -0.1245
     47  CA        73.4890  -19.3740   46.2560 C.3    51  MET51       0.1570
     48  C         72.5330  -20.2390   45.4320 C.2    51  MET51       0.2261
     49  O         72.2840  -19.9460   44.2650 O.2    51  MET51      -0.2867
     50  CB        74.9270  -19.8270   45.9890 C.3    51  MET51       0.0387
     51  CG        75.9920  -18.9420   46.6240 C.3    51  MET51       0.0595
     52  SD        76.7070  -17.7480   45.4770 S.3    51  MET51      -0.1393
     53  CE        75.9580  -16.2280   46.0320 C.3    51  MET51       0.0692
     54  N         68.0700  -18.7620   46.8440 N.3    54  PRO54      -0.2116
     55  CA        67.9300  -17.5300   47.6200 C.3    54  PRO54       0.1372
     56  C         66.5770  -16.8510   47.4980 C.2    54  PRO54       0.2244
     57  O         65.9960  -16.7940   46.4180 O.2    54  PRO54      -0.2868
     58  CB        69.0340  -16.6490   47.0500 C.3    54  PRO54       0.0268
     59  CG        69.0090  -17.0240   45.6030 C.3    54  PRO54       0.0207
     60  CD        68.9190  -18.5390   45.6600 C.3    54  PRO54       0.0892
     61  N         65.5680  -13.4140   47.8910 N.3    56  TYR56      -0.1241
     62  CA        66.0740  -12.0610   48.0610 C.3    56  TYR56       0.1605
     63  C         65.2000  -11.1590   48.9230 C.2    56  TYR56       0.2264
     64  O         65.7060  -10.2720   49.6110 O.2    56  TYR56      -0.2867
     65  CB        66.3130  -11.4350   46.6850 C.3    56  TYR56       0.0534
     66  CG        67.4440  -12.1050   45.9380 C.ar   56  TYR56      -0.0201
     67  CD1       67.1960  -13.0880   44.9770 C.ar   56  TYR56      -0.0009
     68  CD2       68.7760  -11.7910   46.2360 C.ar   56  TYR56      -0.0009
     69  CE1       68.2460  -13.7410   44.3330 C.ar   56  TYR56       0.0417
     70  CE2       69.8290  -12.4360   45.6030 C.ar   56  TYR56       0.0417
     71  CZ        69.5630  -13.4080   44.6570 C.ar   56  TYR56       0.1957
     72  OH        70.6100  -14.0550   44.0520 O.3    56  TYR56      -0.2866
     73  N         84.6180  -12.3820   31.0510 N.3   142  PHE142     -0.1227
     74  CA        84.4900  -11.9670   32.4450 C.3   142  PHE142      0.1736
     75  C         85.0910  -12.9630   33.4270 C.2   142  PHE142      0.2595
     76  O         84.9280  -14.1740   33.2760 O.2   142  PHE142     -0.2718
     77  CB        83.0160  -11.7910   32.8260 C.3   142  PHE142      0.0547
     78  CG        82.3290  -10.6350   32.1580 C.ar  142  PHE142     -0.0202
     79  CD1       81.3080  -10.8600   31.2400 C.ar  142  PHE142     -0.0042
     80  CD2       82.6430   -9.3210   32.5050 C.ar  142  PHE142     -0.0042
     81  CE1       80.6010   -9.7920   30.6830 C.ar  142  PHE142     -0.0003
     82  CE2       81.9430   -8.2480   31.9540 C.ar  142  PHE142     -0.0003
     83  CZ        80.9170   -8.4860   31.0420 C.ar  142  PHE142     -0.0000
     84  N         85.7700  -12.4430   34.4420 N.am  143  LEU143     -0.1966
     85  CA        86.3520  -13.2780   35.4870 C.3   143  LEU143      0.1728
     86  C         85.5020  -12.9890   36.7140 C.2   143  LEU143      0.2616
     87  O         84.7680  -12.0050   36.7430 O.2   143  LEU143     -0.2715
     88  CB        87.7940  -12.8580   35.7860 C.3   143  LEU143      0.0311
     89  CG        88.8650  -12.9670   34.7000 C.3   143  LEU143      0.0022
     90  CD1       90.1730  -12.3800   35.2220 C.3   143  LEU143      0.0001
     91  CD2       89.0510  -14.4240   34.3040 C.3   143  LEU143      0.0001
     92  N         85.5920  -13.8400   37.7290 N.am  144  ASN144     -0.1958
     93  CA        84.8160  -13.5970   38.9380 C.3   144  ASN144      0.1819
     94  C         85.2620  -12.2360   39.4670 C.2   144  ASN144      0.2622
     95  O         86.4130  -11.8360   39.2850 O.2   144  ASN144     -0.2715
     96  CB        85.0630  -14.6950   39.9780 C.3   144  ASN144      0.1195
     97  CG        84.0430  -14.6680   41.1090 C.2   144  ASN144      0.2630
     98  OD1       83.1020  -13.8770   41.0910 O.2   144  ASN144     -0.2716
     99  ND2       84.2260  -15.5390   42.0950 N.am  144  ASN144     -0.0877
    100  N         84.3470  -11.5240   40.1110 N.am  145  GLY145     -0.1940
    101  CA        84.6740  -10.2080   40.6130 C.3   145  GLY145      0.2014
    102  C         84.1830   -9.1560   39.6280 C.2   145  GLY145      0.2640
    103  O         84.2410   -7.9590   39.9080 O.2   145  GLY145     -0.2714
    104  N         83.6840   -9.5980   38.4740 N.am  146  SER146     -0.1935
    105  CA        83.2130   -8.6550   37.4650 C.3   146  SER146      0.2055
    106  C         81.7380   -8.2600   37.4900 C.2   146  SER146      0.2643
    107  O         81.3310   -7.3980   36.7170 O.2   146  SER146     -0.2714
    108  CB        83.5620   -9.1510   36.0530 C.3   146  SER146      0.2130
    109  OG        82.8790  -10.3470   35.7150 O.3   146  SER146     -0.2179
    110  N         80.9260   -8.8550   38.3580 N.am  147  CYS147     -0.1967
    111  CA        79.5150   -8.4650   38.3610 C.3   147  CYS147      0.1712
    112  C         79.3750   -7.0140   38.7680 C.2   147  CYS147      0.2296
    113  O         80.1540   -6.4970   39.5740 O.2   147  CYS147     -0.2864
    114  CB        78.6720   -9.3530   39.2690 C.3   147  CYS147      0.0983
    115  SG        78.6570  -11.0890   38.6520 S.3   147  CYS147     -0.0798
    116  N         76.2590   -6.8780   34.3510 N.3   165  HIS165     -0.1226
    117  CA        76.6270   -8.2850   34.4410 C.3   165  HIS165      0.1752
    118  C         76.2610   -8.9860   35.7550 C.2   165  HIS165      0.2596
    119  O         76.5360   -8.4790   36.8470 O.2   165  HIS165     -0.2718
    120  CB        78.1280   -8.4370   34.1740 C.3   165  HIS165      0.0759
    121  CG        78.5610   -9.8620   34.0220 C.ar  165  HIS165      0.0818
    122  ND1       77.9410  -10.7310   33.1500 N.ar  165  HIS165     -0.2268
    123  CD2       79.5230  -10.5780   34.6500 C.ar  165  HIS165      0.1154
    124  CE1       78.5010  -11.9230   33.2500 C.ar  165  HIS165      0.1986
    125  NE2       79.4630  -11.8570   34.1520 N.ar  165  HIS165     -0.2212
    126  N         75.6580  -10.1700   35.6350 N.am  166  HIS166     -0.1961
    127  CA        75.2470  -10.9660   36.7930 C.3   166  HIS166      0.1787
    128  C         75.8150  -12.3910   36.8540 C.2   166  HIS166      0.2620
    129  O         76.1250  -12.8930   37.9420 O.2   166  HIS166     -0.2715
    130  CB        73.7200  -11.0790   36.8610 C.3   166  HIS166      0.0785
    131  CG        73.0180   -9.7940   37.1820 C.ar  166  HIS166      0.0821
    132  ND1       72.2050   -9.6490   38.2860 N.ar  166  HIS166     -0.2267
    133  CD2       72.9650   -8.6160   36.5210 C.ar  166  HIS166      0.1154
    134  CE1       71.6790   -8.4370   38.2900 C.ar  166  HIS166      0.1986
    135  NE2       72.1240   -7.7900   37.2290 N.ar  166  HIS166     -0.2212
    136  N         75.9420  -13.0650   35.7150 N.am  167  MET167     -0.1963
    137  CA        76.4300  -14.4330   35.7730 C.3   167  MET167      0.1736
    138  C         76.9500  -15.0760   34.4990 C.2   167  MET167      0.2616
    139  O         76.9050  -14.4920   33.4140 O.2   167  MET167     -0.2715
    140  CB        75.3420  -15.3380   36.3760 C.3   167  MET167      0.0427
    141  CG        73.9400  -15.1570   35.8020 C.3   167  MET167      0.0599
    142  SD        72.7230  -16.3160   36.5460 S.3   167  MET167     -0.1393
    143  CE        72.4500  -17.4200   35.1690 C.3   167  MET167      0.0692
    144  N         77.4500  -16.2990   34.6630 N.am  168  GLU168     -0.1963
    145  CA        77.9830  -17.0960   33.5690 C.3   168  GLU168      0.1733
    146  C         77.2400  -18.4260   33.5110 C.2   168  GLU168      0.2616
    147  O         77.0470  -19.0850   34.5360 O.2   168  GLU168     -0.2715
    148  CB        79.4750  -17.3620   33.7740 C.3   168  GLU168      0.0429
    149  CG        80.0440  -18.4330   32.8450 C.3   168  GLU168      0.1163
    150  CD        81.4760  -18.8040   33.1860 C.2   168  GLU168      0.3649
    151  OE1       81.7570  -19.0740   34.3720 O.co2 168  GLU168     -0.2457
    152  OE2       82.3190  -18.8360   32.2700 O.co2 168  GLU168     -0.2457
    153  N         76.8260  -18.8140   32.3090 N.am  169  LEU169     -0.1964
    154  CA        76.1100  -20.0670   32.1100 C.3   169  LEU169      0.1713
    155  C         77.0940  -21.2270   31.9840 C.2   169  LEU169      0.2458
    156  O         78.2570  -21.0320   31.6460 O.2   169  LEU169     -0.2730
    157  CB        75.2410  -19.9870   30.8530 C.3   169  LEU169      0.0310
    158  CG        73.8140  -19.4370   30.9730 C.3   169  LEU169      0.0022
    159  CD1       73.8030  -18.1030   31.6780 C.3   169  LEU169      0.0001
    160  CD2       73.2200  -19.3090   29.5770 C.3   169  LEU169      0.0001
    161  N         76.6290  -22.4560   32.2470 N.am  170  PRO170     -0.2727
    162  CA        77.4770  -23.6490   32.1640 C.3   170  PRO170      0.1402
    163  C         78.2570  -23.7120   30.8600 C.2   170  PRO170      0.2269
    164  O         79.3850  -24.1990   30.8190 O.2   170  PRO170     -0.2865
    165  CB        76.4740  -24.7940   32.2810 C.3   170  PRO170      0.0296
    166  CG        75.4030  -24.2240   33.1290 C.3   170  PRO170      0.0237
    167  CD        75.2420  -22.8200   32.5920 C.3   170  PRO170      0.0939
    168  N         77.7200  -15.4570   29.0100 N.3   174  HIS174     -0.1241
    169  CA        77.2660  -14.6440   30.1270 C.3   174  HIS174      0.1621
    170  C         75.8500  -14.0980   30.0250 C.2   174  HIS174      0.2264
    171  O         75.3080  -13.9300   28.9280 O.2   174  HIS174     -0.2867
    172  CB        78.2680  -13.5090   30.3320 C.3   174  HIS174      0.0745
    173  CG        79.6780  -13.9930   30.4700 C.ar  174  HIS174      0.0817
    174  ND1       80.5760  -13.9800   29.4240 N.ar  174  HIS174     -0.2268
    175  CD2       80.3200  -14.5800   31.5090 C.ar  174  HIS174      0.1154
    176  CE1       81.7090  -14.5400   29.8110 C.ar  174  HIS174      0.1986
    177  NE2       81.5790  -14.9140   31.0710 N.ar  174  HIS174     -0.2212
    178  N         68.8790  -15.2060   38.8460 N.3   189  ASP189     -0.1225
    179  CA        70.1310  -15.0800   39.5850 C.3   189  ASP189      0.1805
    180  C         70.2880  -16.0350   40.7650 C.2   189  ASP189      0.2598
    181  O         70.1360  -15.6500   41.9280 O.2   189  ASP189     -0.2718
    182  CB        70.3430  -13.6280   40.0350 C.3   189  ASP189      0.1424
    183  CG        69.1140  -13.0150   40.6760 C.2   189  ASP189      0.3668
    184  OD1       68.0440  -13.6640   40.7070 O.co2 189  ASP189     -0.2456
    185  OD2       69.2210  -11.8600   41.1480 O.co2 189  ASP189     -0.2456
    186  N         70.5950  -17.2860   40.4320 N.am  190  ARG190     -0.1966
    187  CA        70.8180  -18.3530   41.3990 C.3   190  ARG190      0.1729
    188  C         71.6670  -19.4090   40.7120 C.2   190  ARG190      0.2616
    189  O         71.5780  -19.5940   39.4900 O.2   190  ARG190     -0.2715
    190  CB        69.4940  -18.9550   41.8730 C.3   190  ARG190      0.0348
    191  CG        68.5870  -19.5040   40.7840 C.3   190  ARG190      0.0492
    192  CD        67.2600  -19.9070   41.4090 C.3   190  ARG190      0.2205
    193  NE        66.7510  -18.8170   42.2400 N.pl3 190  ARG190     -0.0865
    194  CZ        65.8920  -18.9650   43.2440 C.cat 190  ARG190      0.5346
    195  NH1       65.4260  -20.1680   43.5580 N.pl3 190  ARG190      0.1354
    196  NH2       65.5130  -17.9060   43.9500 N.pl3 190  ARG190      0.1354
    197  N         72.4870  -20.1100   41.4890 N.am  191  GLN191     -0.1963
    198  CA        73.3700  -21.1070   40.9140 C.3   191  GLN191      0.1733
    199  C         72.7250  -22.4630   40.6710 C.2   191  GLN191      0.2617
    200  O         73.0340  -23.4640   41.3200 O.2   191  GLN191     -0.2715
    201  CB        74.6460  -21.2000   41.7640 C.3   191  GLN191      0.0408
    202  CG        75.3440  -19.8290   41.7910 C.3   191  GLN191      0.0908
    203  CD        76.8140  -19.8660   42.1600 C.2   191  GLN191      0.2608
    204  OE1       77.5550  -18.9350   41.8510 O.2   191  GLN191     -0.2717
    205  NE2       77.2390  -20.9290   42.8290 N.am  191  GLN191     -0.0878
    206  N         71.8120  -22.4620   39.7040 N.am  192  THR192     -0.1937
    207  CA        71.0810  -23.6500   39.2930 C.3   192  THR192      0.2028
    208  C         71.4170  -23.9340   37.8360 C.2   192  THR192      0.2642
    209  O         71.9200  -23.0630   37.1220 O.2   192  THR192     -0.2714
    210  CB        69.5590  -23.4310   39.3970 C.3   192  THR192      0.1808
    211  OG1       69.1950  -22.2480   38.6680 O.3   192  THR192     -0.2208
    212  CG2       69.1380  -23.2790   40.8510 C.3   192  THR192      0.0379
    213  N         71.1410  -25.1570   37.3980 N.am  193  ALA193     -0.1963
    214  CA        71.3980  -25.5370   36.0170 C.3   193  ALA193      0.1728
    215  C         70.4410  -24.7570   35.1230 C.2   193  ALA193      0.2616
    216  O         69.2250  -24.9180   35.2150 O.2   193  ALA193     -0.2715
    217  CB        71.1840  -27.0430   35.8350 C.3   193  ALA193      0.0334
    218  N         70.9930  -23.8950   34.2760 N.am  194  GLN194     -0.1977
    219  CA        70.1820  -23.1010   33.3650 C.3   194  GLN194      0.1601
    220  C         70.8000  -23.1640   31.9760 C.2   194  GLN194      0.2287
    221  O         72.0190  -23.1300   31.8270 O.2   194  GLN194     -0.2864
    222  CB        70.1110  -21.6450   33.8330 C.3   194  GLN194      0.0394
    223  CG        69.3960  -21.4460   35.1580 C.3   194  GLN194      0.0908
    224  CD        69.4240  -19.9990   35.6190 C.2   194  GLN194      0.2608
    225  OE1       68.9250  -19.1070   34.9300 O.2   194  GLN194     -0.2717
    226  NE2       70.0140  -19.7590   36.7910 N.am  194  GLN194     -0.0878
@<TRIPOS>BOND
     1   171   170    2
     2   168   169    1
     3   174   176   ar
     4   174   173   ar
     5   160   158    1
     6   176   177   ar
     7   170   169    1
     8   169   172    1
     9   172   173    1
    10   173   175   ar
    11    81    83   ar
    12    81    79   ar
    13   164   163    2
    14   157   158    1
    15   157   154    1
    16   163   162    1
    17   158   159    1
    18    83    82   ar
    19    73    74    1
    20   177   175   ar
    21    79    78   ar
    22   156   155    2
    23   221   220    2
    24    82    80   ar
    25   220   219    1
    26   155   154    1
    27   155   161   am
    28   154   153    1
    29    78    80   ar
    30    78    77    1
    31   162   161    1
    32   162   165    1
    33   161   167    1
    34   152   150   ar
    35   165   166    1
    36   153   146   am
    37    74    77    1
    38    74    75    1
    39   167   166    1
    40   149   150    1
    41   149   148    1
    42   122   124   ar
    43   122   121   ar
    44   150   151   ar
    45   124   125   ar
    46    76    75    2
    47   219   222    1
    48   219   218    1
    49   139   138    2
    50    75    84   am
    51   146   145    1
    52   146   147    2
    53   145   148    1
    54   145   144    1
    55   222   223    1
    56   121   120    1
    57   121   123   ar
    58   125   123   ar
    59   120   117    1
    60   218   215   am
    61    91    89    1
    62   116   117    1
    63   117   118    1
    64    84    85    1
    65   138   144   am
    66   138   137    1
    67    89    90    1
    68    89    88    1
    69   225   224    2
    70   215   216    2
    71   215   214    1
    72   223   224    1
    73   143   142    1
    74    85    88    1
    75    85    86    1
    76   224   226   am
    77   126   118   am
    78   126   127    1
    79   136   137    1
    80   136   128   am
    81   109   108    1
    82   118   119    2
    83   137   140    1
    84   141   140    1
    85   141   142    1
    86   217   214    1
    87   214   213    1
    88   108   105    1
    89   133   131   ar
    90   133   135   ar
    91    86    87    2
    92    86    92   am
    93   107   106    2
    94   127   128    1
    95   127   130    1
    96   128   129    2
    97   130   131    1
    98   209   208    2
    99   131   132   ar
   100   135   134   ar
   101   213   208   am
   102   105   106    1
   103   105   104    1
   104   106   110   am
   105    92    93    1
   106   208   207    1
   107   132   134   ar
   108   110   111    1
   109   111   112    1
   110   111   114    1
   111   104   102   am
   112   115   114    1
   113   211   210    1
   114   112   113    2
   115   178   179    1
   116    93    94    1
   117    93    96    1
   118    95    94    2
   119   207   210    1
   120   207   206    1
   121   210   212    1
   122    94   100   am
   123   189   188    2
   124   179   182    1
   125   179   180    1
   126   102   103    2
   127   102   101    1
   128   206   199   am
   129    96    97    1
   130   182   183    1
   131   100   101    1
   132   186   180   am
   133   186   187    1
   134   199   198    1
   135   199   200    2
   136   183   184   ar
   137   183   185   ar
   138   188   187    1
   139   188   197   am
   140   180   181    2
   141   191   192    1
   142   191   190    1
   143   198   197    1
   144   198   201    1
   145    38    36   ar
   146    38    39   ar
   147    98    97    2
   148    97    99   am
   149   187   190    1
   150   192   193    1
   151    36    35   ar
   152   201   202    1
   153   202   203    1
   154   204   203    2
   155    39    37   ar
   156   203   205   am
   157   193   194    2
   158    35    37   ar
   159    35    34    1
   160    26    23    1
   161    26    27    1
   162    24    23    1
   163    24    25    2
   164    29    27    1
   165   194   195    1
   166   194   196    1
   167    23    22    1
   168    28    27    1
   169    34    31    1
   170    72    71    1
   171    30    31    1
   172    49    48    2
   173    69    71   ar
   174    69    67   ar
   175    71    70   ar
   176    31    32    1
   177    18    17    2
   178    22    17   am
   179    67    66   ar
   180    17    16    1
   181    48    47    1
   182    52    53    1
   183    52    51    1
   184    70    68   ar
   185    59    60    1
   186    59    58    1
   187    60    54    1
   188    32    33    2
   189    66    68   ar
   190    66    65    1
   191    50    47    1
   192    50    51    1
   193    47    46    1
   194    57    56    2
   195    21    19    1
   196    65    62    1
   197    54    55    1
   198    16    19    1
   199    16    15    1
   200    45    44    1
   201    58    55    1
   202    19    20    1
   203    15    10   am
   204    56    55    1
   205    61    62    1
   206    44    41    1
   207    62    63    1
   208    12    13    1
   209    12     9    1
   210    12    14    1
   211    10    11    2
   212    10     9    1
   213     9     8    1
   214    63    64    2
   215    40    41    1
   216    41    42    1
   217    43    42    2
   218     8     3   am
   219     4     3    2
   220     3     2    1
   221     6     5    1
   222     2     5    1
   223     2     1    1
   224     5     7    1
