@<TRIPOS>MOLECULE
tmp/1wogB00.pdb
 140 134 0 0 0
SMALL
GASTEIGER

@<TRIPOS>ATOM
      1  N        -22.1970  -19.5220   25.9080 N.3   119  HIS119     -0.1241
      2  CA       -21.0050  -20.2930   26.2360 C.3   119  HIS119      0.1621
      3  C        -21.1840  -21.7990   26.3460 C.2   119  HIS119      0.2264
      4  O        -20.1980  -22.5420   26.3130 O.2   119  HIS119     -0.2867
      5  CB       -20.3540  -19.7540   27.5110 C.3   119  HIS119      0.0745
      6  CG       -18.8590  -19.7300   27.4430 C.ar  119  HIS119      0.0817
      7  ND1      -18.0920  -18.8290   28.1490 N.ar  119  HIS119     -0.2268
      8  CD2      -17.9930  -20.4720   26.7140 C.ar  119  HIS119      0.1154
      9  CE1      -16.8190  -19.0120   27.8530 C.ar  119  HIS119      0.1986
     10  NE2      -16.7320  -20.0030   26.9840 N.ar  119  HIS119     -0.2212
     11  N        -16.8500  -14.7500   34.1210 N.3   143  HIS143     -0.1226
     12  CA       -17.3140  -15.8900   34.9110 C.3   143  HIS143      0.1752
     13  C        -16.4320  -17.1280   34.7190 C.2   143  HIS143      0.2596
     14  O        -15.7210  -17.2390   33.7280 O.2   143  HIS143     -0.2718
     15  CB       -18.7600  -16.2180   34.5300 C.3   143  HIS143      0.0759
     16  CG       -19.6500  -15.0150   34.4440 C.ar  143  HIS143      0.0818
     17  ND1      -19.6990  -14.2010   33.3320 N.ar  143  HIS143     -0.2268
     18  CD2      -20.5130  -14.4790   35.3400 C.ar  143  HIS143      0.1154
     19  CE1      -20.5550  -13.2170   33.5460 C.ar  143  HIS143      0.1986
     20  NE2      -21.0620  -13.3630   34.7570 N.ar  143  HIS143     -0.2212
     21  N        -16.4910  -18.0640   35.6670 N.am  144  LEU144     -0.1966
     22  CA       -15.6670  -19.2720   35.5880 C.3   144  LEU144      0.1728
     23  C        -16.2540  -20.3570   34.6890 C.2   144  LEU144      0.2616
     24  O        -15.5240  -21.0190   33.9460 O.2   144  LEU144     -0.2715
     25  CB       -15.4370  -19.8430   36.9880 C.3   144  LEU144      0.0311
     26  CG       -14.4980  -21.0510   37.0950 C.3   144  LEU144      0.0022
     27  CD1      -13.0950  -20.6680   36.6560 C.3   144  LEU144      0.0001
     28  CD2      -14.4900  -21.5430   38.5410 C.3   144  LEU144      0.0001
     29  N        -17.5690  -20.5380   34.7620 N.am  145  ASP145     -0.1957
     30  CA       -18.2630  -21.5410   33.9600 C.3   145  ASP145      0.1840
     31  C        -17.7670  -22.9650   34.1990 C.2   145  ASP145      0.2622
     32  O        -17.5660  -23.7190   33.2490 O.2   145  ASP145     -0.2715
     33  CB       -18.1480  -21.2180   32.4680 C.3   145  ASP145      0.1450
     34  CG       -18.8430  -19.9290   32.1030 C.2   145  ASP145      0.3671
     35  OD1      -19.7070  -19.5040   32.8860 O.co2 145  ASP145     -0.2456
     36  OD2      -18.5430  -19.3480   31.0420 O.co2 145  ASP145     -0.2456
     37  N        -17.5730  -23.3240   35.4630 N.am  146  PHE146     -0.1960
     38  CA       -17.1260  -24.6730   35.8120 C.3   146  PHE146      0.1771
     39  C        -18.1380  -25.2750   36.7860 C.2   146  PHE146      0.2620
     40  O        -17.8040  -26.1210   37.6210 O.2   146  PHE146     -0.2715
     41  CB       -15.7410  -24.6240   36.4590 C.3   146  PHE146      0.0574
     42  CG       -14.9480  -25.8920   36.2860 C.ar  146  PHE146     -0.0200
     43  CD1      -14.4920  -26.2730   35.0290 C.ar  146  PHE146     -0.0042
     44  CD2      -14.6590  -26.7050   37.3790 C.ar  146  PHE146     -0.0042
     45  CE1      -13.7550  -27.4470   34.8580 C.ar  146  PHE146     -0.0003
     46  CE2      -13.9250  -27.8790   37.2230 C.ar  146  PHE146     -0.0003
     47  CZ       -13.4710  -28.2500   35.9610 C.ar  146  PHE146     -0.0000
     48  N        -19.3820  -24.8190   36.6700 N.am  147  THR147     -0.1951
     49  CA       -20.4690  -25.2760   37.5290 C.3   147  THR147      0.1897
     50  C        -20.9750  -26.6540   37.1240 C.2   147  THR147      0.2313
     51  O        -21.0610  -26.9690   35.9420 O.2   147  THR147     -0.2863
     52  CB       -21.6510  -24.2730   37.4940 C.3   147  THR147      0.1794
     53  OG1      -21.2610  -23.0640   38.1570 O.3   147  THR147     -0.2208
     54  CG2      -22.8830  -24.8530   38.1790 C.3   147  THR147      0.0378
     55  N        -26.8730  -26.1190   37.4550 N.3   150  ARG150     -0.1245
     56  CA       -27.4490  -24.7900   37.6590 C.3   150  ARG150      0.1563
     57  C        -28.9080  -24.8130   37.2070 C.2   150  ARG150      0.2260
     58  O        -29.2120  -25.2790   36.1130 O.2   150  ARG150     -0.2867
     59  CB       -26.6960  -23.7390   36.8340 C.3   150  ARG150      0.0307
     60  CG       -27.0460  -22.2980   37.2010 C.3   150  ARG150      0.0489
     61  CD       -26.6900  -21.3260   36.0860 C.3   150  ARG150      0.2205
     62  NE       -27.6790  -21.3590   35.0100 N.pl3 150  ARG150     -0.0865
     63  CZ       -27.5300  -20.7570   33.8340 C.cat 150  ARG150      0.5346
     64  NH1      -28.4850  -20.8420   32.9180 N.pl3 150  ARG150      0.1354
     65  NH2      -26.4230  -20.0780   33.5680 N.pl3 150  ARG150      0.1354
     66  N        -25.0420  -22.4520   30.2770 N.3   157  ASN157     -0.1225
     67  CA       -23.8010  -21.8120   29.8650 C.3   157  ASN157      0.1785
     68  C        -22.8310  -21.6430   31.0310 C.2   157  ASN157      0.2597
     69  O        -21.7250  -21.1380   30.8550 O.2   157  ASN157     -0.2718
     70  CB       -24.0680  -20.4510   29.1930 C.3   157  ASN157      0.1169
     71  CG       -24.7630  -19.4510   30.1060 C.2   157  ASN157      0.2627
     72  OD1      -25.4010  -19.8410   31.0920 O.2   157  ASN157     -0.2716
     73  ND2      -24.6330  -18.1710   29.8030 N.am  157  ASN157     -0.0877
     74  N        -23.2430  -22.0830   32.2170 N.am  158  SER158     -0.1952
     75  CA       -22.4040  -21.9860   33.4080 C.3   158  SER158      0.1924
     76  C        -21.6110  -23.2770   33.6350 C.2   158  SER158      0.2314
     77  O        -20.7790  -23.3460   34.5430 O.2   158  SER158     -0.2863
     78  CB       -23.2620  -21.7150   34.6480 C.3   158  SER158      0.2116
     79  OG       -23.9880  -20.4970   34.5450 O.3   158  SER158     -0.2180
     80  N        -19.6900  -16.1470   43.0580 N.3   184  PHE184     -0.1227
     81  CA       -18.9980  -17.2530   42.4050 C.3   184  PHE184      0.1736
     82  C        -19.4500  -18.5590   43.0560 C.2   184  PHE184      0.2595
     83  O        -19.6920  -18.6030   44.2620 O.2   184  PHE184     -0.2718
     84  CB       -17.4780  -17.1170   42.5220 C.3   184  PHE184      0.0547
     85  CG       -16.8900  -16.0920   41.5920 C.ar  184  PHE184     -0.0202
     86  CD1      -16.8750  -14.7430   41.9360 C.ar  184  PHE184     -0.0042
     87  CD2      -16.3790  -16.4750   40.3550 C.ar  184  PHE184     -0.0042
     88  CE1      -16.3590  -13.7890   41.0590 C.ar  184  PHE184     -0.0003
     89  CE2      -15.8620  -15.5280   39.4700 C.ar  184  PHE184     -0.0003
     90  CZ       -15.8530  -14.1840   39.8230 C.ar  184  PHE184     -0.0000
     91  N        -19.5850  -19.6030   42.2410 N.am  185  ASP185     -0.1974
     92  CA       -19.9980  -20.9270   42.7040 C.3   185  ASP185      0.1709
     93  C        -18.8210  -21.5120   43.4830 C.2   185  ASP185      0.2293
     94  O        -17.7920  -21.8550   42.9020 O.2   185  ASP185     -0.2864
     95  CB       -20.3170  -21.8110   41.4930 C.3   185  ASP185      0.1436
     96  CG       -20.8150  -23.1970   41.8800 C.2   185  ASP185      0.3671
     97  OD1      -20.5300  -23.6590   43.0040 O.co2 185  ASP185     -0.2456
     98  OD2      -21.4820  -23.8310   41.0380 O.co2 185  ASP185     -0.2456
     99  N        -17.7390  -24.9420   42.2130 N.3   188  ALA188     -0.1245
    100  CA       -17.0940  -24.8410   40.9100 C.3   188  ALA188      0.1562
    101  C        -15.6520  -24.3600   41.0500 C.2   188  ALA188      0.2260
    102  O        -14.7460  -24.9030   40.4220 O.2   188  ALA188     -0.2867
    103  CB       -17.8870  -23.8890   40.0070 C.3   188  ALA188      0.0290
    104  N        -15.2740  -15.1860   25.8370 N.3   227  ASP227     -0.1239
    105  CA       -16.6270  -14.8000   26.2110 C.3   227  ASP227      0.1674
    106  C        -16.5200  -13.2750   26.1800 C.2   227  ASP227      0.2266
    107  O        -15.7160  -12.6970   26.9090 O.2   227  ASP227     -0.2867
    108  CB       -16.9440  -15.2950   27.6260 C.3   227  ASP227      0.1410
    109  CG       -18.3490  -14.9410   28.0710 C.2   227  ASP227      0.3668
    110  OD1      -18.8900  -13.9390   27.5620 O.co2 227  ASP227     -0.2456
    111  OD2      -18.9090  -15.6470   28.9440 O.co2 227  ASP227     -0.2456
    112  N        -18.1630  -11.0650   27.5020 N.3   229  ASP229     -0.1239
    113  CA       -18.4070  -10.3440   28.7460 C.3   229  ASP229      0.1674
    114  C        -17.1410  -10.2250   29.5920 C.2   229  ASP229      0.2266
    115  O        -17.1510   -9.6250   30.6660 O.2   229  ASP229     -0.2867
    116  CB       -19.6060  -10.9080   29.5560 C.3   229  ASP229      0.1410
    117  CG       -19.3770  -12.3030   30.1380 C.2   229  ASP229      0.3668
    118  OD1      -18.2320  -12.6820   30.4620 O.co2 229  ASP229     -0.2456
    119  OD2      -20.3890  -13.0120   30.3030 O.co2 229  ASP229     -0.2456
    120  N        -25.3830  -10.6890   27.4380 N.3   240  SER240     -0.1202
    121  CA       -26.4180  -10.9580   28.4320 C.3   240  SER240      0.2020
    122  C        -26.1640  -10.5040   29.8650 C.2   240  SER240      0.2619
    123  O        -26.9960   -9.8110   30.4530 O.2   240  SER240     -0.2717
    124  CB       -26.7440  -12.4510   28.4590 C.3   240  SER240      0.2103
    125  OG       -27.6430  -12.7320   29.5150 O.3   240  SER240     -0.2182
    126  N        -25.0220  -10.8990   30.4220 N.am  241  SER241     -0.1951
    127  CA       -24.6930  -10.5930   31.8130 C.3   241  SER241      0.1924
    128  C        -23.4120   -9.7890   31.9920 C.2   241  SER241      0.2314
    129  O        -22.3630  -10.3360   32.3330 O.2   241  SER241     -0.2863
    130  CB       -24.5800  -11.9040   32.5970 C.3   241  SER241      0.2116
    131  OG       -25.7280  -12.7080   32.3960 O.3   241  SER241     -0.2180
    132  N        -21.2080  -15.4800   23.6110 N.3   272  GLU272     -0.1245
    133  CA       -22.0130  -14.5550   24.4010 C.3   272  GLU272      0.1567
    134  C        -22.2430  -13.1620   23.8280 C.2   272  GLU272      0.2260
    135  O        -22.6920  -12.2690   24.5430 O.2   272  GLU272     -0.2867
    136  CB       -21.4610  -14.4390   25.8250 C.3   272  GLU272      0.0388
    137  CG       -21.4820  -15.7440   26.6380 C.3   272  GLU272      0.1160
    138  CD       -22.8820  -16.2580   26.9620 C.2   272  GLU272      0.3649
    139  OE1      -23.8770  -15.5550   26.6840 O.co2 272  GLU272     -0.2457
    140  OE2      -22.9880  -17.3720   27.5140 O.co2 272  GLU272     -0.2457
@<TRIPOS>BOND
     1   132   133    1
     2   134   133    1
     3   134   135    2
     4   133   136    1
     5   136   137    1
     6   104   105    1
     7     1     2    1
     8   106   105    1
     9   106   107    2
    10   105   108    1
    11     2     3    1
    12     2     5    1
    13     4     3    2
    14   137   138    1
    15   139   138   ar
    16     8    10   ar
    17     8     6   ar
    18   138   140   ar
    19    10     9   ar
    20   120   121    1
    21     6     5    1
    22     6     7   ar
    23   112   113    1
    24   110   109   ar
    25   108   109    1
    26     9     7   ar
    27   109   111   ar
    28   121   124    1
    29   121   122    1
    30   124   125    1
    31   113   116    1
    32   113   114    1
    33    70    67    1
    34    70    71    1
    35   116   117    1
    36   114   115    2
    37    73    71   am
    38    67    66    1
    39    67    68    1
    40   122   126   am
    41   122   123    2
    42    71    72    2
    43   117   119   ar
    44   117   118   ar
    45   126   127    1
    46    69    68    2
    47    68    74   am
    48    36    34   ar
    49   127   128    1
    50   127   130    1
    51   128   129    2
    52    34    33    1
    53    34    35   ar
    54    74    75    1
    55   131   130    1
    56    33    30    1
    57    64    63    1
    58    32    31    2
    59    17    19   ar
    60    17    16   ar
    61    75    76    1
    62    75    78    1
    63    19    20   ar
    64    65    63    1
    65    76    77    2
    66    14    13    2
    67    63    62    2
    68    24    23    2
    69    30    31    1
    70    30    29    1
    71    11    12    1
    72    31    37   am
    73    16    15    1
    74    16    18   ar
    75    15    12    1
    76    79    78    1
    77    23    29   am
    78    23    22    1
    79    13    12    1
    80    13    21   am
    81    20    18   ar
    82    45    43   ar
    83    45    47   ar
    84    62    61    1
    85    43    42   ar
    86    37    38    1
    87    22    21    1
    88    22    25    1
    89    38    41    1
    90    38    39    1
    91    51    50    2
    92    47    46   ar
    93    61    60    1
    94    58    57    2
    95    42    41    1
    96    42    44   ar
    97    27    26    1
    98    48    39   am
    99    48    49    1
   100    39    40    2
   101    59    60    1
   102    59    56    1
   103    25    26    1
   104    26    28    1
   105    50    49    1
   106    57    56    1
   107    46    44   ar
   108    55    56    1
   109    52    49    1
   110    52    53    1
   111    52    54    1
   112    89    90   ar
   113    89    87   ar
   114    90    88   ar
   115   103   100    1
   116    87    85   ar
   117   102   101    2
   118   100   101    1
   119   100    99    1
   120    98    96   ar
   121    88    86   ar
   122    95    96    1
   123    95    92    1
   124    85    86   ar
   125    85    84    1
   126    96    97   ar
   127    91    92    1
   128    91    82   am
   129    81    84    1
   130    81    82    1
   131    81    80    1
   132    92    93    1
   133    94    93    2
   134    82    83    2
