@<TRIPOS>MOLECULE
tmp/1wokB00.pdb
 133 130 0 0 0
SMALL
GASTEIGER

@<TRIPOS>ATOM
      1  N        -18.5530    0.1070   90.8410 N.3   102  GLU102     -0.1245
      2  CA       -19.5170   -0.8570   91.3550 C.3   102  GLU102      0.1567
      3  C        -20.0550   -0.3760   92.6920 C.2   102  GLU102      0.2260
      4  O        -21.2080    0.0300   92.7900 O.2   102  GLU102     -0.2867
      5  CB       -18.8460   -2.2100   91.5630 C.3   102  GLU102      0.0388
      6  CG       -18.0480   -2.7100   90.3780 C.3   102  GLU102      0.1160
      7  CD       -18.8270   -3.6550   89.4860 C.2   102  GLU102      0.3649
      8  OE1      -19.4320   -4.6130   90.0200 O.co2 102  GLU102     -0.2457
      9  OE2      -18.8170   -3.4510   88.2510 O.co2 102  GLU102     -0.2457
     10  N        -22.4560    2.3950   92.8960 N.3   105  ASP105     -0.1225
     11  CA       -23.7470    1.9460   92.3650 C.3   105  ASP105      0.1805
     12  C        -24.5450    1.3660   93.5260 C.2   105  ASP105      0.2597
     13  O        -25.7100    1.7090   93.7220 O.2   105  ASP105     -0.2718
     14  CB       -23.5760    0.8550   91.2820 C.3   105  ASP105      0.1424
     15  CG       -22.9550    1.3760   89.9690 C.2   105  ASP105      0.3668
     16  OD1      -22.8160    2.6100   89.7910 O.co2 105  ASP105     -0.2456
     17  OD2      -22.6160    0.5340   89.1010 O.co2 105  ASP105     -0.2456
     18  N        -23.9000    0.4910   94.2990 N.am  106  ASN106     -0.1974
     19  CA       -24.5300   -0.1400   95.4560 C.3   106  ASN106      0.1688
     20  C        -24.9570    0.9490   96.4180 C.2   106  ASN106      0.2292
     21  O        -26.1470    1.2020   96.5960 O.2   106  ASN106     -0.2864
     22  CB       -23.5510   -1.0740   96.1610 C.3   106  ASN106      0.1181
     23  CG       -24.2130   -1.8670   97.2720 C.2   106  ASN106      0.2629
     24  OD1      -25.3900   -1.6540   97.5800 O.2   106  ASN106     -0.2716
     25  ND2      -23.4650   -2.7850   97.8800 N.am  106  ASN106     -0.0877
     26  N        -33.5830   -9.2410   86.1210 N.3   201  HIS201     -0.1226
     27  CA       -32.7790   -8.1860   86.7170 C.3   201  HIS201      0.1752
     28  C        -32.4570   -8.4880   88.1620 C.2   201  HIS201      0.2596
     29  O        -33.3160   -8.4140   89.0340 O.2   201  HIS201     -0.2718
     30  CB       -33.4610   -6.8260   86.6440 C.3   201  HIS201      0.0759
     31  CG       -32.5810   -5.7070   87.1140 C.ar  201  HIS201      0.0818
     32  ND1      -31.4380   -5.3340   86.4430 N.ar  201  HIS201     -0.2268
     33  CD2      -32.6420   -4.9290   88.2200 C.ar  201  HIS201      0.1154
     34  CE1      -30.8280   -4.3760   87.1150 C.ar  201  HIS201      0.1986
     35  NE2      -31.5400   -4.1120   88.2010 N.ar  201  HIS201     -0.2212
     36  N        -31.2020   -8.8330   88.4070 N.am  202  GLY202     -0.1957
     37  CA       -30.7680   -9.1390   89.7560 C.3   202  GLY202      0.1869
     38  C        -30.1470   -7.9340   90.4360 C.2   202  GLY202      0.2309
     39  O        -29.8080   -6.9400   89.7900 O.2   202  GLY202     -0.2863
     40  N        -19.9010    0.8190   82.1360 N.3   228  TYR228     -0.1227
     41  CA       -20.8140   -0.2430   81.6950 C.3   228  TYR228      0.1736
     42  C        -20.6060   -0.6280   80.2300 C.2   228  TYR228      0.2595
     43  O        -20.6410    0.2330   79.3480 O.2   228  TYR228     -0.2718
     44  CB       -22.2560    0.2020   81.9070 C.3   228  TYR228      0.0548
     45  CG       -22.4750    0.8740   83.2440 C.ar  228  TYR228     -0.0200
     46  CD1      -22.1220    2.2090   83.4440 C.ar  228  TYR228     -0.0009
     47  CD2      -23.0160    0.1720   84.3110 C.ar  228  TYR228     -0.0009
     48  CE1      -22.3040    2.8240   84.6770 C.ar  228  TYR228      0.0417
     49  CE2      -23.2010    0.7760   85.5480 C.ar  228  TYR228      0.0417
     50  CZ       -22.8470    2.1000   85.7280 C.ar  228  TYR228      0.1957
     51  OH       -23.0390    2.6860   86.9630 O.3   228  TYR228     -0.2866
     52  N        -20.4130   -1.9250   79.9780 N.am  229  MET229     -0.1979
     53  CA       -20.1580   -2.4260   78.6250 C.3   229  MET229      0.1605
     54  C        -20.8470   -1.6990   77.4710 C.2   229  MET229      0.2287
     55  O        -20.2250   -1.4590   76.4430 O.2   229  MET229     -0.2864
     56  CB       -20.4640   -3.9260   78.5270 C.3   229  MET229      0.0413
     57  CG       -20.2530   -4.4830   77.1200 C.3   229  MET229      0.0598
     58  SD       -20.1790   -6.2920   76.9260 S.3   229  MET229     -0.1393
     59  CE       -18.4010   -6.5610   77.0540 C.3   229  MET229      0.0692
     60  N        -29.9930   -2.5250   82.5590 N.3   235  TYR235     -0.1227
     61  CA       -29.6580   -3.7980   81.9270 C.3   235  TYR235      0.1736
     62  C        -30.6450   -4.9260   82.2040 C.2   235  TYR235      0.2595
     63  O        -31.3610   -4.9060   83.1930 O.2   235  TYR235     -0.2718
     64  CB       -28.2330   -4.2230   82.3300 C.3   235  TYR235      0.0548
     65  CG       -27.1410   -3.4180   81.6440 C.ar  235  TYR235     -0.0200
     66  CD1      -26.9770   -2.0580   81.9050 C.ar  235  TYR235     -0.0009
     67  CD2      -26.3320   -3.9950   80.6670 C.ar  235  TYR235     -0.0009
     68  CE1      -26.0410   -1.2950   81.2050 C.ar  235  TYR235      0.0417
     69  CE2      -25.3890   -3.2460   79.9630 C.ar  235  TYR235      0.0417
     70  CZ       -25.2520   -1.8960   80.2250 C.ar  235  TYR235      0.1957
     71  OH       -24.3490   -1.1400   79.4960 O.3   235  TYR235     -0.2866
     72  N        -30.6860   -5.9020   81.3010 N.am  236  PHE236     -0.1962
     73  CA       -31.5620   -7.0660   81.4320 C.3   236  PHE236      0.1771
     74  C        -30.9550   -8.2580   80.7050 C.2   236  PHE236      0.2619
     75  O        -30.3320   -8.0930   79.6500 O.2   236  PHE236     -0.2715
     76  CB       -32.9350   -6.8190   80.7970 C.3   236  PHE236      0.0574
     77  CG       -33.6780   -5.6510   81.3590 C.ar  236  PHE236     -0.0200
     78  CD1      -33.4080   -4.3690   80.9240 C.ar  236  PHE236     -0.0042
     79  CD2      -34.7090   -5.8410   82.2660 C.ar  236  PHE236     -0.0042
     80  CE1      -34.1560   -3.3010   81.3710 C.ar  236  PHE236     -0.0003
     81  CE2      -35.4550   -4.7780   82.7140 C.ar  236  PHE236     -0.0003
     82  CZ       -35.1800   -3.5050   82.2640 C.ar  236  PHE236     -0.0000
     83  N        -31.1560   -9.4490   81.2640 N.am  237  ALA237     -0.1977
     84  CA       -30.6930  -10.6930   80.6470 C.3   237  ALA237      0.1597
     85  C        -31.9030  -11.6230   80.3940 C.2   237  ALA237      0.2287
     86  O        -32.9390  -11.4870   81.0390 O.2   237  ALA237     -0.2864
     87  CB       -29.6880  -11.3840   81.5550 C.3   237  ALA237      0.0319
     88  N        -27.6080  -15.7210   84.5830 N.3   242  LYS242     -0.1231
     89  CA       -26.8540  -14.5060   84.2940 C.3   242  LYS242      0.1693
     90  C        -27.2380  -13.3130   85.1820 C.2   242  LYS242      0.2592
     91  O        -26.3750  -12.6510   85.7610 O.2   242  LYS242     -0.2718
     92  CB       -27.0350  -14.0900   82.8350 C.3   242  LYS242      0.0285
     93  CG       -26.5320  -12.6710   82.5460 C.3   242  LYS242      0.0035
     94  CD       -26.0860  -12.5150   81.1010 C.3   242  LYS242      0.0206
     95  CE       -25.7440  -11.0700   80.7300 C.3   242  LYS242      0.1093
     96  NZ       -25.2350  -10.9580   79.3180 N.3   242  LYS242     -0.1314
     97  N        -28.5370  -13.0440   85.2750 N.am  243  SER243     -0.1952
     98  CA       -29.0410  -11.9230   86.0570 C.3   243  SER243      0.1924
     99  C        -29.0170  -12.2190   87.5520 C.2   243  SER243      0.2314
    100  O        -29.0600  -11.3130   88.3880 O.2   243  SER243     -0.2863
    101  CB       -30.4620  -11.5970   85.6140 C.3   243  SER243      0.2116
    102  OG       -30.7730  -10.2490   85.8840 O.3   243  SER243     -0.2180
    103  N        -25.8820  -11.3030   89.7640 N.3   246  TYR246     -0.1241
    104  CA       -25.7300   -9.9460   90.2510 C.3   246  TYR246      0.1605
    105  C        -26.4200   -9.6810   91.5890 C.2   246  TYR246      0.2264
    106  O        -26.6210   -8.5350   91.9940 O.2   246  TYR246     -0.2867
    107  CB       -26.2060   -8.9780   89.1770 C.3   246  TYR246      0.0534
    108  CG       -25.2280   -8.8760   88.0290 C.ar  246  TYR246     -0.0201
    109  CD1      -23.9920   -8.2820   88.2060 C.ar  246  TYR246     -0.0009
    110  CD2      -25.5410   -9.3650   86.7700 C.ar  246  TYR246     -0.0009
    111  CE1      -23.0960   -8.1700   87.1650 C.ar  246  TYR246      0.0417
    112  CE2      -24.6500   -9.2560   85.7240 C.ar  246  TYR246      0.0417
    113  CZ       -23.4270   -8.6550   85.9290 C.ar  246  TYR246      0.1957
    114  OH       -22.5200   -8.5400   84.8990 O.3   246  TYR246     -0.2866
    115  N        -25.2230  -11.4040   94.3400 N.3   248  HIS248     -0.1241
    116  CA       -24.1170  -11.5600   95.2720 C.3   248  HIS248      0.1621
    117  C        -24.6510  -12.1670   96.5580 C.2   248  HIS248      0.2264
    118  O        -24.6500  -11.5220   97.6020 O.2   248  HIS248     -0.2867
    119  CB       -23.4540  -10.2140   95.5810 C.3   248  HIS248      0.0745
    120  CG       -22.7610   -9.5900   94.4080 C.ar  248  HIS248      0.0817
    121  ND1      -23.4420   -9.0120   93.3580 N.ar  248  HIS248     -0.2268
    122  CD2      -21.4450   -9.4640   94.1170 C.ar  248  HIS248      0.1154
    123  CE1      -22.5780   -8.5560   92.4710 C.ar  248  HIS248      0.1986
    124  NE2      -21.3580   -8.8180   92.9070 N.ar  248  HIS248     -0.2212
    125  N        -27.8950   -9.4750   76.4370 N.3   327  GLU327     -0.1245
    126  CA       -28.0840   -8.3770   77.3670 C.3   327  GLU327      0.1567
    127  C        -29.0180   -7.4410   76.6200 C.2   327  GLU327      0.2260
    128  O        -28.9660   -7.3380   75.3820 O.2   327  GLU327     -0.2867
    129  CB       -26.8020   -7.6020   77.6270 C.3   327  GLU327      0.0388
    130  CG       -25.6780   -8.3790   78.2380 C.3   327  GLU327      0.1160
    131  CD       -24.4800   -7.4950   78.4770 C.2   327  GLU327      0.3649
    132  OE1      -24.1960   -6.6590   77.5930 O.co2 327  GLU327     -0.2457
    133  OE2      -23.8230   -7.6300   79.5290 O.co2 327  GLU327     -0.2457
@<TRIPOS>BOND
     1   128   127    2
     2   125   126    1
     3    55    54    2
     4   127   126    1
     5    58    59    1
     6    58    57    1
     7    57    56    1
     8   126   129    1
     9    54    53    1
    10   132   131   ar
    11   129   130    1
    12   130   131    1
    13   131   133   ar
    14    56    53    1
    15    53    52    1
    16    96    95    1
    17    43    42    2
    18    71    70    1
    19    75    74    2
    20    69    70   ar
    21    69    67   ar
    22    52    42   am
    23    70    68   ar
    24    42    41    1
    25    85    84    1
    26    85    86    2
    27    84    83    1
    28    84    87    1
    29    67    65   ar
    30    74    83   am
    31    74    73    1
    32    95    94    1
    33    76    77    1
    34    76    73    1
    35    78    77   ar
    36    78    80   ar
    37    94    93    1
    38    68    66   ar
    39    72    73    1
    40    72    62   am
    41    77    79   ar
    42    80    82   ar
    43    65    66   ar
    44    65    64    1
    45    41    44    1
    46    41    40    1
    47    44    45    1
    48    61    62    1
    49    61    64    1
    50    61    60    1
    51    62    63    2
    52    82    81   ar
    53    79    81   ar
    54    93    92    1
    55    92    89    1
    56    45    46   ar
    57    45    47   ar
    58    46    48   ar
    59    89    88    1
    60    89    90    1
    61    47    49   ar
    62    48    50   ar
    63   114   113    1
    64    90    97   am
    65    90    91    2
    66    97    98    1
    67    49    50   ar
    68   101   102    1
    69   101    98    1
    70   112   113   ar
    71   112   110   ar
    72    50    51    1
    73   113   111   ar
    74    98    99    1
    75    26    27    1
    76    32    31   ar
    77    32    34   ar
    78    30    27    1
    79    30    31    1
    80    27    28    1
    81   110   108   ar
    82    31    33   ar
    83    34    35   ar
    84   111   109   ar
    85    99   100    2
    86   108   109   ar
    87   108   107    1
    88    28    36   am
    89    28    29    2
    90    35    33   ar
    91     9     7   ar
    92    36    37    1
    93    17    15   ar
    94   107   104    1
    95     7     8   ar
    96     7     6    1
    97    37    38    1
    98   103   104    1
    99    39    38    2
   100    16    15   ar
   101    15    14    1
   102   104   105    1
   103     6     5    1
   104     1     2    1
   105    14    11    1
   106     2     5    1
   107     2     3    1
   108   105   106    2
   109    11    10    1
   110    11    12    1
   111   123   124   ar
   112   123   121   ar
   113     3     4    2
   114   124   122   ar
   115   121   120   ar
   116    12    13    2
   117    12    18   am
   118   122   120   ar
   119    18    19    1
   120   115   116    1
   121   120   119    1
   122   116   119    1
   123   116   117    1
   124    19    22    1
   125    19    20    1
   126    22    23    1
   127    20    21    2
   128   117   118    2
   129    23    24    2
   130    23    25   am
