@<TRIPOS>MOLECULE
tmp/1wopA00.pdb
 217 210 0 0 0
SMALL
GASTEIGER

@<TRIPOS>ATOM
      1  N         10.7160   21.1530   10.4830 N.3    51  MET51      -0.1245
      2  CA         9.2970   21.2010   10.1580 C.3    51  MET51       0.1570
      3  C          9.1300   20.7600    8.7120 C.2    51  MET51       0.2261
      4  O         10.0380   20.9270    7.9000 O.2    51  MET51      -0.2867
      5  CB         8.7720   22.6240   10.3250 C.3    51  MET51       0.0387
      6  CG         9.0580   23.2190   11.6910 C.3    51  MET51       0.0595
      7  SD         7.9720   22.5440   12.9410 S.3    51  MET51      -0.1393
      8  CE         6.5260   23.4090   12.5100 C.3    51  MET51       0.0692
      9  N         -3.2710   30.5600    6.9080 N.3    82  ILE82      -0.1231
     10  CA        -4.3450   30.2580    7.8430 C.3    82  ILE82       0.1692
     11  C         -3.9550   29.1170    8.7840 C.2    82  ILE82       0.2592
     12  O         -3.3440   28.1360    8.3610 O.2    82  ILE82      -0.2718
     13  CB        -5.6340   29.8850    7.0570 C.3    82  ILE82       0.0266
     14  CG1       -6.8230   29.7480    8.0050 C.3    82  ILE82       0.0019
     15  CG2       -5.4170   28.5850    6.2840 C.3    82  ILE82       0.0020
     16  CD1       -8.1630   29.6200    7.2840 C.3    82  ILE82       0.0001
     17  N         -4.2910   29.2640   10.0620 N.am   83  TYR83      -0.1976
     18  CA        -3.9930   28.2390   11.0590 C.3    83  TYR83       0.1639
     19  C         -5.1890   27.3020   11.1430 C.2    83  TYR83       0.2290
     20  O         -6.3340   27.7450   11.1500 O.2    83  TYR83      -0.2864
     21  CB        -3.7330   28.8710   12.4310 C.3    83  TYR83       0.0560
     22  CG        -3.5430   27.8480   13.5320 C.ar   83  TYR83      -0.0198
     23  CD1       -2.5260   26.8930   13.4570 C.ar   83  TYR83      -0.0009
     24  CD2       -4.3970   27.8120   14.6310 C.ar   83  TYR83      -0.0009
     25  CE1       -2.3680   25.9270   14.4480 C.ar   83  TYR83       0.0417
     26  CE2       -4.2440   26.8450   15.6360 C.ar   83  TYR83       0.0417
     27  CZ        -3.2290   25.9100   15.5340 C.ar   83  TYR83       0.1957
     28  OH        -3.0780   24.9600   16.5190 O.3    83  TYR83      -0.2866
     29  N         -1.9410   19.8690   13.6300 N.3    96  ASP96      -0.1225
     30  CA        -2.3700   21.2400   13.4390 C.3    96  ASP96       0.1805
     31  C         -1.3560   21.7620   12.4330 C.2    96  ASP96       0.2598
     32  O         -0.2770   21.1810   12.2890 O.2    96  ASP96      -0.2718
     33  CB        -2.4160   22.0260   14.7630 C.3    96  ASP96       0.1424
     34  CG        -1.0650   22.2280   15.4060 C.2    96  ASP96       0.3668
     35  OD1       -0.1360   21.4170   15.2010 O.co2  96  ASP96      -0.2456
     36  OD2       -0.9530   23.2160   16.1610 O.co2  96  ASP96      -0.2456
     37  N         -1.6970   22.8160   11.7030 N.am   97  LEU97      -0.1966
     38  CA        -0.7820   23.3030   10.6840 C.3    97  LEU97       0.1728
     39  C         -1.1260   24.6930   10.1970 C.2    97  LEU97       0.2616
     40  O         -2.1110   25.2970   10.6200 O.2    97  LEU97      -0.2715
     41  CB        -0.8060   22.3560    9.4770 C.3    97  LEU97       0.0311
     42  CG        -2.1150   22.3600    8.6680 C.3    97  LEU97       0.0022
     43  CD1       -1.9650   21.5120    7.4100 C.3    97  LEU97       0.0001
     44  CD2       -3.2560   21.8310    9.5230 C.3    97  LEU97       0.0001
     45  N         -0.2880   25.1850    9.2940 N.am   98  VAL98      -0.1977
     46  CA        -0.4730   26.4870    8.6800 C.3    98  VAL98       0.1596
     47  C         -0.4410   26.2650    7.1740 C.2    98  VAL98       0.2287
     48  O          0.4880   25.6480    6.6570 O.2    98  VAL98      -0.2864
     49  CB         0.6510   27.4600    9.0750 C.3    98  VAL98       0.0276
     50  CG1        0.5140   28.7510    8.2950 C.3    98  VAL98       0.0022
     51  CG2        0.5850   27.7330   10.5710 C.3    98  VAL98       0.0022
     52  N         -0.7260   28.0780    3.3090 N.3   100  TYR100     -0.1241
     53  CA        -0.5310   29.3290    2.5810 C.3   100  TYR100      0.1605
     54  C         -1.2390   29.2590    1.2360 C.2   100  TYR100      0.2264
     55  O         -1.0450   28.3070    0.4790 O.2   100  TYR100     -0.2867
     56  CB         0.9600   29.5690    2.3400 C.3   100  TYR100      0.0534
     57  CG         1.7930   29.6580    3.6000 C.ar  100  TYR100     -0.0201
     58  CD1        2.2340   30.8850    4.0820 C.ar  100  TYR100     -0.0009
     59  CD2        2.1610   28.5080    4.2960 C.ar  100  TYR100     -0.0009
     60  CE1        3.0270   30.9670    5.2260 C.ar  100  TYR100      0.0417
     61  CE2        2.9520   28.5800    5.4370 C.ar  100  TYR100      0.0417
     62  CZ         3.3820   29.8090    5.8940 C.ar  100  TYR100      0.1957
     63  OH         4.1690   29.8790    7.0190 O.3   100  TYR100     -0.2866
     64  N          2.5650   23.6670    6.0350 N.3   110  VAL110     -0.1245
     65  CA         3.6950   23.5480    6.9490 C.3   110  VAL110      0.1561
     66  C          3.2000   22.7580    8.1530 C.2   110  VAL110      0.2260
     67  O          2.2690   23.1750    8.8410 O.2   110  VAL110     -0.2867
     68  CB         4.2050   24.9270    7.3910 C.3   110  VAL110      0.0252
     69  CG1        5.3840   24.7670    8.3300 C.3   110  VAL110      0.0019
     70  CG2        4.6070   25.7390    6.1650 C.3   110  VAL110      0.0019
     71  N          4.1750   19.8460   11.5990 N.3   112  ASN112     -0.1240
     72  CA         5.1480   19.5230   12.6350 C.3   112  ASN112      0.1653
     73  C          6.1160   18.4390   12.1840 C.2   112  ASN112      0.2266
     74  O          5.7610   17.5720   11.3900 O.2   112  ASN112     -0.2867
     75  CB         4.4270   19.0790   13.9100 C.3   112  ASN112      0.1155
     76  CG         3.6620   20.2080   14.5570 C.2   112  ASN112      0.2627
     77  OD1        4.2560   21.0890   15.1730 O.2   112  ASN112     -0.2716
     78  ND2        2.3370   20.2030   14.4020 N.am  112  ASN112     -0.0877
     79  N         13.6000   26.4860    7.1050 N.3   143  LEU143     -0.1245
     80  CA        12.6680   27.4450    7.6830 C.3   143  LEU143      0.1561
     81  C         13.2900   28.0950    8.9140 C.2   143  LEU143      0.2260
     82  O         13.7330   27.4120    9.8360 O.2   143  LEU143     -0.2867
     83  CB        11.3580   26.7390    8.0660 C.3   143  LEU143      0.0270
     84  CG        10.1830   27.6260    8.5020 C.3   143  LEU143      0.0019
     85  CD1        9.7900   28.5590    7.3620 C.3   143  LEU143      0.0001
     86  CD2        9.0000   26.7480    8.9050 C.3   143  LEU143      0.0001
     87  N         -0.3200   40.3540    9.3130 N.3   168  TYR168     -0.1227
     88  CA        -0.2680   39.1500   10.1340 C.3   168  TYR168      0.1736
     89  C         -0.9420   38.0220    9.3640 C.2   168  TYR168      0.2595
     90  O         -2.0080   38.2030    8.7770 O.2   168  TYR168     -0.2718
     91  CB        -0.9780   39.3980   11.4630 C.3   168  TYR168      0.0548
     92  CG        -0.8630   38.2680   12.4650 C.ar  168  TYR168     -0.0200
     93  CD1        0.3800   37.7400   12.8240 C.ar  168  TYR168     -0.0009
     94  CD2       -2.0010   37.7670   13.0970 C.ar  168  TYR168     -0.0009
     95  CE1        0.4790   36.7340   13.8010 C.ar  168  TYR168      0.0417
     96  CE2       -1.9140   36.7750   14.0640 C.ar  168  TYR168      0.0417
     97  CZ        -0.6820   36.2640   14.4150 C.ar  168  TYR168      0.1957
     98  OH        -0.6260   35.2990   15.3950 O.3   168  TYR168     -0.2866
     99  N         -0.3120   36.8540    9.3720 N.am  169  TYR169     -0.1976
    100  CA        -0.8130   35.6990    8.6400 C.3   169  TYR169      0.1639
    101  C         -0.9930   35.9860    7.1540 C.2   169  TYR169      0.2290
    102  O         -1.9880   35.5990    6.5310 O.2   169  TYR169     -0.2864
    103  CB        -2.1020   35.1480    9.2560 C.3   169  TYR169      0.0560
    104  CG        -1.8110   34.0040   10.2090 C.ar  169  TYR169     -0.0198
    105  CD1       -1.3490   34.2480   11.5020 C.ar  169  TYR169     -0.0009
    106  CD2       -1.8930   32.6760    9.7790 C.ar  169  TYR169     -0.0009
    107  CE1       -0.9660   33.2030   12.3420 C.ar  169  TYR169      0.0417
    108  CE2       -1.5090   31.6210   10.6130 C.ar  169  TYR169      0.0417
    109  CZ        -1.0440   31.8920   11.8900 C.ar  169  TYR169      0.1957
    110  OH        -0.6280   30.8570   12.7050 O.3   169  TYR169     -0.2866
    111  N          4.3360   35.4270   10.5380 N.3   186  THR186     -0.1203
    112  CA         3.7750   34.3610   11.3490 C.3   186  THR186      0.1994
    113  C          4.7680   34.0020   12.4460 C.2   186  THR186      0.2618
    114  O          5.9050   34.4780   12.4530 O.2   186  THR186     -0.2717
    115  CB         3.5150   33.1030   10.5010 C.3   186  THR186      0.1784
    116  OG1        4.7190   32.7420    9.8130 O.3   186  THR186     -0.2211
    117  CG2        2.4160   33.3570    9.4830 C.3   186  THR186      0.0376
    118  N          4.3430   33.1400   13.3610 N.am  187  GLY187     -0.1942
    119  CA         5.2170   32.7530   14.4460 C.3   187  GLY187      0.2014
    120  C          4.5250   31.8660   15.4570 C.2   187  GLY187      0.2638
    121  O          3.3250   31.6030   15.3590 O.2   187  GLY187     -0.2714
    122  N          5.2870   31.4410   16.4550 N.am  188  TYR188     -0.1973
    123  CA         4.8060   30.5330   17.4890 C.3   188  TYR188      0.1639
    124  C          5.2790   31.0690   18.8450 C.2   188  TYR188      0.2290
    125  O          5.5490   30.2970   19.7680 O.2   188  TYR188     -0.2864
    126  CB         5.4310   29.1680   17.1820 C.3   188  TYR188      0.0560
    127  CG         4.9130   27.9560   17.9170 C.ar  188  TYR188     -0.0198
    128  CD1        3.5530   27.6380   17.9360 C.ar  188  TYR188     -0.0009
    129  CD2        5.8070   27.0540   18.4960 C.ar  188  TYR188     -0.0009
    130  CE1        3.1030   26.4350   18.5140 C.ar  188  TYR188      0.0417
    131  CE2        5.3680   25.8610   19.0650 C.ar  188  TYR188      0.0417
    132  CZ         4.0220   25.5570   19.0720 C.ar  188  TYR188      0.1957
    133  OH         3.6120   24.3640   19.6360 O.3   188  TYR188     -0.2866
    134  N          8.6780   34.3170    9.5360 N.3   195  GLU195     -0.1245
    135  CA         9.2390   33.0060    9.2790 C.3   195  GLU195      0.1567
    136  C          9.7840   33.1360    7.8670 C.2   195  GLU195      0.2260
    137  O          9.1630   33.7680    7.0040 O.2   195  GLU195     -0.2867
    138  CB         8.1680   31.9220    9.3640 C.3   195  GLU195      0.0388
    139  CG         7.6670   31.7020   10.7770 C.3   195  GLU195      0.1160
    140  CD         6.7150   30.5330   10.8780 C.2   195  GLU195      0.3649
    141  OE1        5.6840   30.5450   10.1830 O.co2 195  GLU195     -0.2457
    142  OE2        7.0040   29.5970   11.6480 O.co2 195  GLU195     -0.2457
    143  N         11.7590   27.9240   22.5060 N.3   227  ARG227     -0.1245
    144  CA        10.6180   27.7720   21.6220 C.3   227  ARG227      0.1563
    145  C          9.4240   27.2320   22.4060 C.2   227  ARG227      0.2260
    146  O          8.3030   27.7150   22.2510 O.2   227  ARG227     -0.2867
    147  CB        10.9600   26.8240   20.4670 C.3   227  ARG227      0.0307
    148  CG         9.8420   26.6460   19.4350 C.3   227  ARG227      0.0489
    149  CD        10.3430   25.8370   18.2390 C.3   227  ARG227      0.2205
    150  NE         9.2930   25.4710   17.2870 N.pl3 227  ARG227     -0.0865
    151  CZ         8.6910   26.3160   16.4500 C.cat 227  ARG227      0.5346
    152  NH1        9.0170   27.6020   16.4320 N.pl3 227  ARG227      0.1354
    153  NH2        7.7710   25.8680   15.6070 N.pl3 227  ARG227      0.1354
    154  N         -0.1350   28.5210   22.8530 N.3   236  TYR236     -0.1227
    155  CA        -0.3940   27.8930   21.5580 C.3   236  TYR236      0.1736
    156  C         -0.1870   26.4060   21.8240 C.2   236  TYR236      0.2595
    157  O          0.6450   26.0390   22.6530 O.2   236  TYR236     -0.2718
    158  CB         0.6050   28.3540   20.4930 C.3   236  TYR236      0.0548
    159  CG         0.5910   29.8340   20.1790 C.ar  236  TYR236     -0.0200
    160  CD1       -0.5640   30.5970   20.3280 C.ar  236  TYR236     -0.0009
    161  CD2        1.7310   30.4600   19.6720 C.ar  236  TYR236     -0.0009
    162  CE1       -0.5820   31.9520   19.9770 C.ar  236  TYR236      0.0417
    163  CE2        1.7220   31.8010   19.3170 C.ar  236  TYR236      0.0417
    164  CZ         0.5640   32.5410   19.4690 C.ar  236  TYR236      0.1957
    165  OH         0.5580   33.8620   19.0880 O.3   236  TYR236     -0.2866
    166  N         -0.9230   25.5510   21.1250 N.am  237  LEU237     -0.1966
    167  CA        -0.8120   24.1160   21.3600 C.3   237  LEU237      0.1728
    168  C          0.3360   23.4290   20.6380 C.2   237  LEU237      0.2616
    169  O          0.7670   23.8500   19.5650 O.2   237  LEU237     -0.2715
    170  CB        -2.1300   23.4200   21.0020 C.3   237  LEU237      0.0311
    171  CG        -3.3930   24.0070   21.6460 C.3   237  LEU237      0.0022
    172  CD1       -4.5730   23.0840   21.3740 C.3   237  LEU237      0.0001
    173  CD2       -3.1990   24.1780   23.1470 C.3   237  LEU237      0.0001
    174  N          0.8200   22.3580   21.2530 N.am  238  LEU238     -0.1977
    175  CA         1.9110   21.5550   20.7130 C.3   238  LEU238      0.1596
    176  C          1.3560   20.1560   20.4410 C.2   238  LEU238      0.2287
    177  O          1.0570   19.4080   21.3750 O.2   238  LEU238     -0.2864
    178  CB         3.0530   21.4760   21.7350 C.3   238  LEU238      0.0297
    179  CG         4.1910   20.4960   21.4410 C.3   238  LEU238      0.0022
    180  CD1        4.8000   20.8080   20.0830 C.3   238  LEU238      0.0001
    181  CD2        5.2370   20.5910   22.5420 C.3   238  LEU238      0.0001
    182  N        -12.6060   27.6810   17.2310 N.3   256  TRP256     -0.1241
    183  CA       -12.5550   28.7780   16.2700 C.3   256  TRP256      0.1605
    184  C        -11.9340   28.4430   14.9080 C.2   256  TRP256      0.2264
    185  O        -12.1130   29.1930   13.9450 O.2   256  TRP256     -0.2867
    186  CB       -11.8470   29.9980   16.8790 C.3   256  TRP256      0.0550
    187  CG       -10.3900   29.8050   17.1760 C.ar  256  TRP256      0.0003
    188  CD1       -9.8470   29.2130   18.2810 C.ar  256  TRP256      0.0946
    189  CD2       -9.2880   30.2130   16.3550 C.ar  256  TRP256      0.0152
    190  NE1       -8.4720   29.2300   18.2000 N.ar  256  TRP256     -0.2442
    191  CE2       -8.1030   29.8370   17.0280 C.ar  256  TRP256      0.0810
    192  CE3       -9.1870   30.8620   15.1150 C.ar  256  TRP256      0.0012
    193  CZ2       -6.8290   30.0880   16.5030 C.ar  256  TRP256      0.0191
    194  CZ3       -7.9210   31.1120   14.5930 C.ar  256  TRP256      0.0001
    195  CH2       -6.7570   30.7250   15.2880 C.ar  256  TRP256      0.0015
    196  N          0.5230   37.6880   26.1820 N.3   357  ARG357     -0.1245
    197  CA         0.4080   38.1090   24.7920 C.3   357  ARG357      0.1563
    198  C          1.3580   39.2820   24.6360 C.2   357  ARG357      0.2260
    199  O          1.2620   40.2720   25.3650 O.2   357  ARG357     -0.2867
    200  CB        -1.0190   38.5410   24.4480 C.3   357  ARG357      0.0307
    201  CG        -1.1300   39.2440   23.0950 C.3   357  ARG357      0.0489
    202  CD        -2.5730   39.5910   22.7560 C.3   357  ARG357      0.2205
    203  NE        -3.2910   38.4520   22.1940 N.pl3 357  ARG357     -0.0865
    204  CZ        -3.2430   38.0990   20.9130 C.cat 357  ARG357      0.5346
    205  NH1       -2.5140   38.8010   20.0590 N.pl3 357  ARG357      0.1354
    206  NH2       -3.9210   37.0430   20.4870 N.pl3 357  ARG357      0.1354
    207  N         -2.6330   41.0990   13.6410 N.3   362  ARG362     -0.1245
    208  CA        -3.7340   40.9090   12.6180 C.3   362  ARG362      0.1563
    209  C         -4.4090   42.2550   12.4550 C.2   362  ARG362      0.2260
    210  O         -4.7090   42.9260   13.4470 O.2   362  ARG362     -0.2867
    211  CB        -4.8810   39.9260   12.8580 C.3   362  ARG362      0.0307
    212  CG        -5.8280   39.9990   11.6500 C.3   362  ARG362      0.0489
    213  CD        -5.4520   38.9820   10.5930 C.3   362  ARG362      0.2205
    214  NE        -5.4830   37.7040   11.2560 N.pl3 362  ARG362     -0.0865
    215  CZ        -5.4470   36.5320   10.6460 C.cat 362  ARG362      0.5346
    216  NH1       -5.3740   36.4660    9.3330 N.pl3 362  ARG362      0.1354
    217  NH2       -5.4790   35.4160   11.3570 N.pl3 362  ARG362      0.1354
@<TRIPOS>BOND
     1    55    54    2
     2    54    53    1
     3    56    53    1
     4    56    57    1
     5    53    52    1
     6    57    58   ar
     7    57    59   ar
     8    58    60   ar
     9    59    61   ar
    10    60    62   ar
    11    61    62   ar
    12    62    63    1
    13    64    65    1
    14    70    68    1
    15    15    13    1
    16   102   101    2
    17    48    47    2
    18     9    10    1
    19    65    68    1
    20    65    66    1
    21   137   136    2
    22    13    10    1
    23    13    14    1
    24    79    80    1
    25   101   100    1
    26    47    46    1
    27    16    14    1
    28    85    84    1
    29    68    69    1
    30    43    42    1
    31    80    83    1
    32    80    81    1
    33    10    11    1
    34   136   135    1
    35     4     3    2
    36    83    84    1
    37    66    67    2
    38    50    49    1
    39    12    11    2
    40    84    86    1
    41   100   103    1
    42   100    99    1
    43    42    41    1
    44    42    44    1
    45    46    49    1
    46    46    45    1
    47     3     2    1
    48    90    89    2
    49    11    17   am
    50    81    82    2
    51    49    51    1
    52   103   104    1
    53   135   138    1
    54   135   134    1
    55    45    39   am
    56    87    88    1
    57   216   215    1
    58   138   139    1
    59    89    99   am
    60    89    88    1
    61    41    38    1
    62   117   115    1
    63   106   104   ar
    64   106   108   ar
    65   116   115    1
    66    17    18    1
    67    88    91    1
    68     2     5    1
    69     2     1    1
    70   141   140   ar
    71    39    40    2
    72    39    38    1
    73   104   105   ar
    74     5     6    1
    75   115   112    1
    76   111   112    1
    77   213   214    1
    78   213   212    1
    79   108   109   ar
    80   215   214    2
    81   215   217    1
    82    38    37    1
    83   139   140    1
    84   140   142   ar
    85    18    19    1
    86    18    21    1
    87    19    20    2
    88   112   113    1
    89    74    73    2
    90    91    92    1
    91   105   107   ar
    92    71    72    1
    93   212   211    1
    94     6     7    1
    95    37    31   am
    96   109   107   ar
    97   109   110    1
    98    73    72    1
    99    32    31    2
   100    21    22    1
   101    31    30    1
   102   113   114    2
   103   113   118   am
   104   209   208    1
   105   209   210    2
   106    92    93   ar
   107    92    94   ar
   108     8     7    1
   109   208   211    1
   110   208   207    1
   111    72    75    1
   112    93    95   ar
   113    94    96   ar
   114   118   119    1
   115    30    29    1
   116    30    33    1
   117    23    22   ar
   118    23    25   ar
   119    22    24   ar
   120    95    97   ar
   121    75    76    1
   122   185   184    2
   123    96    97   ar
   124    78    76   am
   125    97    98    1
   126   119   120    1
   127    25    27   ar
   128    76    77    2
   129   194   192   ar
   130   194   195   ar
   131    24    26   ar
   132    33    34    1
   133   184   183    1
   134   192   189   ar
   135    35    34   ar
   136   195   193   ar
   137   121   120    2
   138    34    36   ar
   139   120   122   am
   140    27    26   ar
   141    27    28    1
   142   153   151    1
   143   183   186    1
   144   183   182    1
   145   189   191   ar
   146   189   187   ar
   147   152   151    1
   148   151   150    2
   149   122   123    1
   150   193   191   ar
   151   186   187    1
   152   191   190   ar
   153   187   188   ar
   154   126   123    1
   155   126   127    1
   156   150   149    1
   157   123   124    1
   158   127   128   ar
   159   127   129   ar
   160   128   130   ar
   161   190   188   ar
   162   149   148    1
   163   129   131   ar
   164   130   132   ar
   165   124   125    2
   166   131   132   ar
   167   132   133    1
   168   165   164    1
   169   163   164   ar
   170   163   161   ar
   171   148   147    1
   172   164   162   ar
   173   169   168    2
   174   161   159   ar
   175   162   160   ar
   176   205   204    1
   177   180   179    1
   178   159   160   ar
   179   159   158    1
   180   176   175    1
   181   176   177    2
   182   147   144    1
   183   206   204    1
   184   158   155    1
   185   168   174   am
   186   168   167    1
   187   175   174    1
   188   175   178    1
   189   204   203    2
   190   170   167    1
   191   170   171    1
   192   166   167    1
   193   166   156   am
   194   172   171    1
   195   179   178    1
   196   179   181    1
   197   155   156    1
   198   155   154    1
   199   144   145    1
   200   144   143    1
   201   171   173    1
   202   156   157    2
   203   203   202    1
   204   146   145    2
   205   202   201    1
   206   201   200    1
   207   200   197    1
   208   198   197    1
   209   198   199    2
   210   197   196    1
