@<TRIPOS>MOLECULE
tmp/1woqB00.pdb
 115 108 0 0 0
SMALL
GASTEIGER

@<TRIPOS>ATOM
      1  N         66.7250  124.6730   96.8050 N.3    73  PRO73      -0.2102
      2  CA        66.2550  123.9800   95.5990 C.3    73  PRO73       0.1504
      3  C         67.3350  123.2300   94.8240 C.2    73  PRO73       0.2576
      4  O         67.6270  123.5480   93.6700 O.2    73  PRO73      -0.2718
      5  CB        65.6310  125.1100   94.7880 C.3    73  PRO73       0.0282
      6  CG        66.5450  126.2490   95.0900 C.3    73  PRO73       0.0208
      7  CD        66.7410  126.1320   96.5930 C.3    73  PRO73       0.0893
      8  N         67.9230  122.2270   95.4590 N.am   74  GLY74      -0.1957
      9  CA        68.9520  121.4500   94.7950 C.3    74  GLY74       0.1869
     10  C         69.3830  120.2640   95.6260 C.2    74  GLY74       0.2309
     11  O         68.9650  120.1160   96.7730 O.2    74  GLY74      -0.2863
     12  N         73.5830  120.6850   92.8480 N.3    83  SER83      -0.1217
     13  CA        72.7580  121.0500   91.6990 C.3    83  SER83       0.1889
     14  C         72.1600  122.4290   91.9670 C.2    83  SER83       0.2288
     15  O         71.8830  122.7820   93.1120 O.2    83  SER83      -0.2866
     16  CB        71.6480  120.0140   91.4480 C.3    83  SER83       0.2089
     17  OG        70.5530  120.1750   92.3320 O.3    83  SER83      -0.2183
     18  N         69.6940  124.0310   89.4560 N.3    85  ALA85      -0.1231
     19  CA        68.8700  124.1770   88.2640 C.3    85  ALA85       0.1694
     20  C         68.2870  125.5630   88.0010 C.2    85  ALA85       0.2592
     21  O         68.3810  126.0750   86.8840 O.2    85  ALA85      -0.2718
     22  CB        67.7450  123.1460   88.2940 C.3    85  ALA85       0.0304
     23  N         67.6830  126.1720   89.0170 N.am   86  ASN86      -0.1974
     24  CA        67.0660  127.4780   88.8380 C.3    86  ASN86       0.1688
     25  C         67.5990  128.5850   89.7430 C.2    86  ASN86       0.2292
     26  O         66.8780  129.5220   90.0860 O.2    86  ASN86      -0.2864
     27  CB        65.5520  127.3440   89.0030 C.3    86  ASN86       0.1181
     28  CG        64.9570  126.3480   88.0280 C.2    86  ASN86       0.2629
     29  OD1       65.0230  126.5400   86.8120 O.2    86  ASN86      -0.2716
     30  ND2       64.3860  125.2680   88.5540 N.am   86  ASN86      -0.0877
     31  N         67.1200  119.6420  100.9320 N.3   112  ASN112     -0.1225
     32  CA        66.4330  120.0080   99.7010 C.3   112  ASN112      0.1785
     33  C         65.0280  120.4880  100.0620 C.2   112  ASN112      0.2597
     34  O         64.4040  119.9560  100.9860 O.2   112  ASN112     -0.2718
     35  CB        66.3430  118.8100   98.7610 C.3   112  ASN112      0.1169
     36  CG        65.5310  119.1150   97.5280 C.2   112  ASN112      0.2627
     37  OD1       66.0180  119.7390   96.5760 O.2   112  ASN112     -0.2716
     38  ND2       64.2760  118.7000   97.5450 N.am  112  ASN112     -0.0877
     39  N         64.5250  121.4820   99.3340 N.am  113  ASP113     -0.1960
     40  CA        63.2080  122.0340   99.6230 C.3   113  ASP113      0.1840
     41  C         62.0600  121.0470   99.4630 C.2   113  ASP113      0.2621
     42  O         61.1300  121.0460  100.2720 O.2   113  ASP113     -0.2715
     43  CB        62.9540  123.2990   98.7850 C.3   113  ASP113      0.1450
     44  CG        62.9250  123.0310   97.2940 C.2   113  ASP113      0.3671
     45  OD1       63.6690  122.1460   96.8200 O.co2 113  ASP113     -0.2456
     46  OD2       62.1690  123.7320   96.5900 O.co2 113  ASP113     -0.2456
     47  N         62.1180  120.1970   98.4420 N.am  114  ALA114     -0.1977
     48  CA        61.0560  119.2160   98.2490 C.3   114  ALA114      0.1597
     49  C         61.1650  118.1550   99.3420 C.2   114  ALA114      0.2287
     50  O         60.1500  117.6980   99.8730 O.2   114  ALA114     -0.2864
     51  CB        61.1620  118.5670   96.8620 C.3   114  ALA114      0.0319
     52  N         56.2680  118.7230   94.0510 N.3   138  THR138     -0.1218
     53  CA        56.0020  120.1410   94.2550 C.3   138  THR138      0.1862
     54  C         56.0420  120.8750   92.9210 C.2   138  THR138      0.2287
     55  O         56.9450  120.6640   92.1080 O.2   138  THR138     -0.2866
     56  CB        57.0190  120.7860   95.2430 C.3   138  THR138      0.1770
     57  OG1       58.3380  120.7590   94.6850 O.3   138  THR138     -0.2211
     58  CG2       57.0220  120.0340   96.5670 C.3   138  THR138      0.0375
     59  N         58.5260  127.0990   90.7470 N.3   141  THR141     -0.1203
     60  CA        59.5420  127.5700   89.8080 C.3   141  THR141      0.1994
     61  C         60.1070  126.3520   89.0920 C.2   141  THR141      0.2618
     62  O         60.3920  126.3870   87.8980 O.2   141  THR141     -0.2717
     63  CB        60.6720  128.3270   90.5410 C.3   141  THR141      0.1784
     64  OG1       60.1490  129.5550   91.0580 O.3   141  THR141     -0.2211
     65  CG2       61.8300  128.6340   89.5960 C.3   141  THR141      0.0376
     66  N         60.2670  125.2690   89.8410 N.am  142  GLY142     -0.1942
     67  CA        60.7590  124.0360   89.2610 C.3   142  GLY142      0.2014
     68  C         59.8320  122.9430   89.7460 C.2   142  GLY142      0.2639
     69  O         58.8260  123.2340   90.3910 O.2   142  GLY142     -0.2714
     70  N         60.1330  121.6940   89.4130 N.am  143  ILE143     -0.1963
     71  CA        59.3220  120.5820   89.8930 C.3   143  ILE143      0.1727
     72  C         60.2130  119.8420   90.8760 C.2   143  ILE143      0.2617
     73  O         61.3020  119.3880   90.5210 O.2   143  ILE143     -0.2715
     74  CB        58.8880  119.6190   88.7560 C.3   143  ILE143      0.0290
     75  CG1       57.8820  120.3190   87.8380 C.3   143  ILE143      0.0022
     76  CG2       58.2500  118.3550   89.3530 C.3   143  ILE143      0.0023
     77  CD1       57.3740  119.4610   86.6930 C.3   143  ILE143      0.0001
     78  N         59.7580  119.7580   92.1200 N.am  144  GLY144     -0.1940
     79  CA        60.5220  119.0760   93.1420 C.3   144  GLY144      0.2014
     80  C         59.8580  117.7570   93.4630 C.2   144  GLY144      0.2639
     81  O         58.7080  117.5290   93.0930 O.2   144  GLY144     -0.2714
     82  N         60.5840  116.8760   94.1360 N.am  145  SER145     -0.1949
     83  CA        60.0240  115.5900   94.4970 C.3   145  SER145      0.1924
     84  C         60.6650  115.0510   95.7600 C.2   145  SER145      0.2314
     85  O         61.8860  115.0820   95.9100 O.2   145  SER145     -0.2863
     86  CB        60.2240  114.5760   93.3560 C.3   145  SER145      0.2116
     87  OG        61.6000  114.2750   93.1530 O.3   145  SER145     -0.2180
     88  N         65.2650  113.6620   92.3410 N.3   158  GLU158     -0.1245
     89  CA        65.1050  114.8250   91.4710 C.3   158  GLU158      0.1567
     90  C         64.2020  114.4900   90.2900 C.2   158  GLU158      0.2260
     91  O         64.5760  114.6700   89.1320 O.2   158  GLU158     -0.2867
     92  CB        66.4760  115.2770   90.9710 C.3   158  GLU158      0.0388
     93  CG        67.3200  116.0060   92.0130 C.3   158  GLU158      0.1160
     94  CD        66.8070  117.4110   92.2910 C.2   158  GLU158      0.3649
     95  OE1       66.2300  118.0270   91.3690 O.co2 158  GLU158     -0.2457
     96  OE2       66.9970  117.9050   93.4220 O.co2 158  GLU158     -0.2457
     97  N         63.3790  116.4450   87.0640 N.3   161  HIS161     -0.1241
     98  CA        64.2850  116.4330   85.9300 C.3   161  HIS161      0.1621
     99  C         64.2330  115.1570   85.1050 C.2   161  HIS161      0.2264
    100  O         65.1750  114.8170   84.3860 O.2   161  HIS161     -0.2867
    101  CB        65.7050  116.7570   86.3980 C.3   161  HIS161      0.0745
    102  CG        65.8530  118.1730   86.8540 C.ar  161  HIS161      0.0817
    103  ND1       66.0180  118.5210   88.1780 N.ar  161  HIS161     -0.2268
    104  CD2       65.7620  119.3380   86.1680 C.ar  161  HIS161      0.1154
    105  CE1       66.0190  119.8390   88.2870 C.ar  161  HIS161      0.1986
    106  NE2       65.8650  120.3570   87.0820 N.ar  161  HIS161     -0.2212
    107  N         60.3980  119.6380   84.1240 N.3   170  GLU170     -0.1245
    108  CA        60.0320  120.9220   84.7050 C.3   170  GLU170      0.1567
    109  C         60.1020  122.0990   83.7530 C.2   170  GLU170      0.2260
    110  O         59.4520  123.1140   83.9880 O.2   170  GLU170     -0.2867
    111  CB        60.8800  121.2230   85.9390 C.3   170  GLU170      0.0388
    112  CG        62.3460  121.4790   85.6670 C.3   170  GLU170      0.1160
    113  CD        63.0210  122.1480   86.8460 C.2   170  GLU170      0.3649
    114  OE1       62.6960  121.7840   87.9940 O.co2 170  GLU170     -0.2457
    115  OE2       63.8730  123.0330   86.6270 O.co2 170  GLU170     -0.2457
@<TRIPOS>BOND
     1   109   110    2
     2   109   108    1
     3   107   108    1
     4   100    99    2
     5   108   111    1
     6    99    98    1
     7   112   111    1
     8   112   113    1
     9    98   101    1
    10    98    97    1
    11   104   102   ar
    12   104   106   ar
    13   101   102    1
    14   115   113   ar
    15    77    75    1
    16    29    28    2
    17   113   114   ar
    18   102   103   ar
    19    21    20    2
    20   106   105   ar
    21    75    74    1
    22    62    61    2
    23    20    19    1
    24    20    23   am
    25    28    30   am
    26    28    27    1
    27   103   105   ar
    28    19    22    1
    29    19    18    1
    30    74    76    1
    31    74    71    1
    32    24    27    1
    33    24    23    1
    34    24    25    1
    35    61    60    1
    36    61    66   am
    37    91    90    2
    38    67    68    1
    39    67    66    1
    40    70    68   am
    41    70    71    1
    42    65    63    1
    43    25    26    2
    44    68    69    2
    45    60    63    1
    46    60    59    1
    47    71    72    1
    48    90    89    1
    49    73    72    2
    50    63    64    1
    51    72    78   am
    52    92    89    1
    53    92    93    1
    54    95    94   ar
    55    16    13    1
    56    16    17    1
    57    89    88    1
    58    13    14    1
    59    13    12    1
    60    14    15    2
    61    93    94    1
    62    55    54    2
    63    78    79    1
    64    94    96   ar
    65    54    53    1
    66    81    80    2
    67    79    80    1
    68    87    86    1
    69    86    83    1
    70    80    82   am
    71     4     3    2
    72    52    53    1
    73    82    83    1
    74    53    56    1
    75    83    84    1
    76    57    56    1
    77     5     6    1
    78     5     2    1
    79     9     8    1
    80     9    10    1
    81     3     8   am
    82     3     2    1
    83     6     7    1
    84    56    58    1
    85     2     1    1
    86    10    11    2
    87    84    85    2
    88    37    36    2
    89    46    44   ar
    90     7     1    1
    91    45    44   ar
    92    51    48    1
    93    44    43    1
    94    36    38   am
    95    36    35    1
    96    48    47    1
    97    48    49    1
    98    47    41   am
    99    35    32    1
   100    43    40    1
   101    39    40    1
   102    39    33   am
   103    49    50    2
   104    41    40    1
   105    41    42    2
   106    32    33    1
   107    32    31    1
   108    33    34    2
