@<TRIPOS>MOLECULE
tmp/1worA00.pdb
 122 116 0 0 0
SMALL
GASTEIGER

@<TRIPOS>ATOM
      1  N         19.7300   18.3260   21.8380 N.3    18  VAL18      -0.1231
      2  CA        18.6760   17.4760   22.3700 C.3    18  VAL18       0.1692
      3  C         18.0210   16.7850   21.1800 C.2    18  VAL18       0.2592
      4  O         18.0290   17.3160   20.0650 O.2    18  VAL18      -0.2718
      5  CB        17.6060   18.2970   23.1400 C.3    18  VAL18       0.0266
      6  CG1       16.8990   19.2680   22.2020 C.3    18  VAL18       0.0020
      7  CG2       16.6000   17.3620   23.7860 C.3    18  VAL18       0.0020
      8  N         17.4780   15.5970   21.4160 N.am   19  ASP19      -0.1960
      9  CA        16.8070   14.8400   20.3630 C.3    19  ASP19       0.1840
     10  C         15.3390   15.2420   20.3440 C.2    19  ASP19       0.2622
     11  O         14.6100   14.9960   21.3070 O.2    19  ASP19      -0.2715
     12  CB        16.9100   13.3330   20.6320 C.3    19  ASP19       0.1450
     13  CG        16.3240   12.4870   19.5030 C.2    19  ASP19       0.3671
     14  OD1       15.3270   12.9090   18.8820 O.co2  19  ASP19      -0.2456
     15  OD2       16.8560   11.3880   19.2440 O.co2  19  ASP19      -0.2456
     16  N         14.9050   15.8770   19.2630 N.am   20  PHE20      -0.1974
     17  CA        13.5090   16.2620   19.1540 C.3    20  PHE20       0.1639
     18  C         12.9050   15.6940   17.8730 C.2    20  PHE20       0.2290
     19  O         13.3220   16.0460   16.7650 O.2    20  PHE20      -0.2864
     20  CB        13.3500   17.7820   19.1610 C.3    20  PHE20       0.0560
     21  CG        11.9220   18.2290   19.0430 C.ar   20  PHE20      -0.0200
     22  CD1       11.0330   18.0420   20.0990 C.ar   20  PHE20      -0.0042
     23  CD2       11.4480   18.7720   17.8560 C.ar   20  PHE20      -0.0042
     24  CE1        9.6910   18.3850   19.9690 C.ar   20  PHE20      -0.0003
     25  CE2       10.1090   19.1170   17.7140 C.ar   20  PHE20      -0.0003
     26  CZ         9.2270   18.9230   18.7730 C.ar   20  PHE20      -0.0000
     27  N         19.0540   22.7780   22.1640 N.3    27  LEU27      -0.1245
     28  CA        18.1470   23.0190   23.2750 C.3    27  LEU27       0.1561
     29  C         18.3100   24.4780   23.6810 C.2    27  LEU27       0.2260
     30  O         17.3360   25.1620   23.9880 O.2    27  LEU27      -0.2867
     31  CB        18.4820   22.0930   24.4470 C.3    27  LEU27       0.0270
     32  CG        17.5590   22.2100   25.6660 C.3    27  LEU27       0.0019
     33  CD1       16.1290   21.8710   25.2650 C.3    27  LEU27       0.0001
     34  CD2       18.0380   21.2710   26.7680 C.3    27  LEU27       0.0001
     35  N         13.2450   21.6120   10.8530 N.3    50  HIS50      -0.1226
     36  CA        12.8060   20.2460   11.0910 C.3    50  HIS50       0.1752
     37  C         11.3370   20.1460   10.6770 C.2    50  HIS50       0.2595
     38  O         10.8210   19.0530   10.4410 O.2    50  HIS50      -0.2718
     39  CB        12.9800   19.8700   12.5670 C.3    50  HIS50       0.0759
     40  CG        12.2180   20.7450   13.5150 C.ar   50  HIS50       0.0818
     41  ND1       12.3680   22.1150   13.5530 N.ar   50  HIS50      -0.2268
     42  CD2       11.3230   20.4390   14.4850 C.ar   50  HIS50       0.1154
     43  CE1       11.6010   22.6140   14.5050 C.ar   50  HIS50       0.1986
     44  NE2       10.9570   21.6180   15.0870 N.ar   50  HIS50      -0.2212
     45  N         10.6740   21.2980   10.5780 N.am   51  MET51      -0.1979
     46  CA         9.2690   21.3450   10.1730 C.3    51  MET51       0.1605
     47  C          9.1480   20.8770    8.7180 C.2    51  MET51       0.2287
     48  O         10.0750   21.0510    7.9200 O.2    51  MET51      -0.2864
     49  CB         8.7190   22.7730   10.3080 C.3    51  MET51       0.0413
     50  CG         8.7430   23.3580   11.7380 C.3    51  MET51       0.0598
     51  SD         7.6310   22.5100   12.9050 S.3    51  MET51      -0.1393
     52  CE         6.0960   22.9080   12.1690 C.3    51  MET51       0.0692
     53  N          4.1220   19.6620   11.4650 N.3   112  ASN112     -0.1240
     54  CA         5.0780   19.3100   12.5090 C.3   112  ASN112      0.1653
     55  C          6.0520   18.1990   12.1380 C.2   112  ASN112      0.2266
     56  O          5.6890   17.2360   11.4650 O.2   112  ASN112     -0.2867
     57  CB         4.3230   18.9320   13.7850 C.3   112  ASN112      0.1155
     58  CG         3.6810   20.1260   14.4420 C.2   112  ASN112      0.2627
     59  OD1        4.3730   21.0390   14.8830 O.2   112  ASN112     -0.2716
     60  ND2        2.3550   20.1380   14.5000 N.am  112  ASN112     -0.0877
     61  N          5.3920   31.5470   16.7730 N.3   188  TYR188     -0.1241
     62  CA         4.9670   30.6350   17.8340 C.3   188  TYR188      0.1605
     63  C          5.4310   31.2130   19.1780 C.2   188  TYR188      0.2264
     64  O          5.6000   30.4780   20.1500 O.2   188  TYR188     -0.2867
     65  CB         5.6600   29.2890   17.5590 C.3   188  TYR188      0.0534
     66  CG         5.1550   28.0470   18.2740 C.ar  188  TYR188     -0.0201
     67  CD1        3.8120   27.6640   18.2110 C.ar  188  TYR188     -0.0009
     68  CD2        6.0520   27.1940   18.9230 C.ar  188  TYR188     -0.0009
     69  CE1        3.3780   26.4510   18.7720 C.ar  188  TYR188      0.0417
     70  CE2        5.6300   25.9840   19.4830 C.ar  188  TYR188      0.0417
     71  CZ         4.2960   25.6190   19.4020 C.ar  188  TYR188      0.1957
     72  OH         3.8890   24.4120   19.9400 O.3   188  TYR188     -0.2866
     73  N         15.2950   25.1310   21.2870 N.3   224  LEU224     -0.1231
     74  CA        13.9930   24.5440   21.5680 C.3   224  LEU224      0.1693
     75  C         13.5190   24.7870   22.9990 C.2   224  LEU224      0.2592
     76  O         12.3160   24.8150   23.2590 O.2   224  LEU224     -0.2718
     77  CB        14.0220   23.0430   21.2680 C.3   224  LEU224      0.0284
     78  CG        14.3770   22.6530   19.8280 C.3   224  LEU224      0.0019
     79  CD1       14.2130   21.1480   19.6620 C.3   224  LEU224      0.0001
     80  CD2       13.4740   23.3910   18.8420 C.3   224  LEU224      0.0001
     81  N         14.4580   24.9560   23.9250 N.am  225  GLY225     -0.1957
     82  CA        14.0720   25.2160   25.3010 C.3   225  GLY225      0.1869
     83  C         13.2930   26.5180   25.3520 C.2   225  GLY225      0.2309
     84  O         12.2000   26.5850   25.9190 O.2   225  GLY225     -0.2863
     85  N         11.9990   28.0000   22.8070 N.3   227  ARG227     -0.1231
     86  CA        10.8460   27.8820   21.9190 C.3   227  ARG227      0.1694
     87  C          9.6290   27.3780   22.7000 C.2   227  ARG227      0.2592
     88  O          8.5240   27.9060   22.5520 O.2   227  ARG227     -0.2718
     89  CB        11.1620   26.9250   20.7650 C.3   227  ARG227      0.0321
     90  CG        10.0100   26.7240   19.7650 C.3   227  ARG227      0.0489
     91  CD        10.5140   26.0130   18.5050 C.3   227  ARG227      0.2205
     92  NE         9.4510   25.4610   17.6660 N.pl3 227  ARG227     -0.0865
     93  CZ         8.7310   26.1490   16.7860 C.cat 227  ARG227      0.5346
     94  NH1        8.9410   27.4490   16.6060 N.pl3 227  ARG227      0.1354
     95  NH2        7.8120   25.5250   16.0630 N.pl3 227  ARG227      0.1354
     96  N          9.8340   26.3710   23.5460 N.am  228  ASP228     -0.1974
     97  CA         8.7250   25.8200   24.3240 C.3   228  ASP228      0.1709
     98  C          8.2270   26.7930   25.3810 C.2   228  ASP228      0.2293
     99  O          7.0240   26.9050   25.6080 O.2   228  ASP228     -0.2864
    100  CB         9.1230   24.5130   25.0080 C.3   228  ASP228      0.1436
    101  CG         7.9270   23.7870   25.6030 C.2   228  ASP228      0.3671
    102  OD1        7.0340   23.3910   24.8220 O.co2 228  ASP228     -0.2456
    103  OD2        7.8730   23.6200   26.8420 O.co2 228  ASP228     -0.2456
    104  N          6.1390   29.6010   23.5720 N.3   231  ARG231     -0.1245
    105  CA         4.8380   29.1690   23.0610 C.3   231  ARG231      0.1563
    106  C          3.8670   28.8310   24.1950 C.2   231  ARG231      0.2260
    107  O          2.6630   29.0510   24.0660 O.2   231  ARG231     -0.2867
    108  CB         4.9880   27.9680   22.1080 C.3   231  ARG231      0.0307
    109  CG         5.3590   26.6390   22.7590 C.3   231  ARG231      0.0489
    110  CD         4.1210   25.8550   23.2170 C.3   231  ARG231      0.2205
    111  NE         4.5010   24.6650   23.9770 N.pl3 231  ARG231     -0.0865
    112  CZ         3.6420   23.7950   24.4990 C.cat 231  ARG231      0.5346
    113  NH1        2.3350   23.9670   24.3470 N.pl3 231  ARG231      0.1354
    114  NH2        4.0950   22.7520   25.1850 N.pl3 231  ARG231      0.1354
    115  N          1.1070   22.3500   21.3940 N.3   238  LEU238     -0.1245
    116  CA         2.1600   21.5230   20.8090 C.3   238  LEU238      0.1561
    117  C          1.5710   20.1340   20.5460 C.2   238  LEU238      0.2260
    118  O          1.2210   19.4000   21.4850 O.2   238  LEU238     -0.2867
    119  CB         3.3500   21.3980   21.7680 C.3   238  LEU238      0.0270
    120  CG         4.4870   20.4470   21.3840 C.3   238  LEU238      0.0019
    121  CD1        4.9010   20.6750   19.9260 C.3   238  LEU238      0.0001
    122  CD2        5.6590   20.6620   22.3440 C.3   238  LEU238      0.0001
@<TRIPOS>BOND
     1    48    47    2
     2    47    46    1
     3    46    49    1
     4    46    45    1
     5    49    50    1
     6    38    37    2
     7    45    37   am
     8    37    36    1
     9    35    36    1
    10    36    39    1
    11    56    55    2
    12    53    54    1
    13    50    51    1
    14    55    54    1
    15    52    51    1
    16    54    57    1
    17    39    40    1
    18    40    41   ar
    19    40    42   ar
    20    41    43   ar
    21    57    58    1
    22    58    60   am
    23    58    59    2
    24    42    44   ar
    25    43    44   ar
    26    95    93    1
    27    94    93    1
    28    19    18    2
    29    61    62    1
    30    93    92    2
    31    65    62    1
    32    65    66    1
    33    92    91    1
    34    25    23   ar
    35    25    26   ar
    36    62    63    1
    37    23    21   ar
    38    18    17    1
    39    67    66   ar
    40    67    69   ar
    41    66    68   ar
    42    91    90    1
    43    69    71   ar
    44    26    24   ar
    45    80    78    1
    46    14    13   ar
    47    68    70   ar
    48    21    20    1
    49    21    22   ar
    50    17    20    1
    51    17    16    1
    52    63    64    2
    53    15    13   ar
    54    16    10   am
    55    71    70   ar
    56    71    72    1
    57    13    12    1
    58    79    78    1
    59    90    89    1
    60    78    77    1
    61   121   120    1
    62    24    22   ar
    63     4     3    2
    64    10     9    1
    65    10    11    2
    66     9    12    1
    67     9     8    1
    68   117   116    1
    69   117   118    2
    70    89    86    1
    71   116   115    1
    72   116   119    1
    73     3     8   am
    74     3     2    1
    75    77    74    1
    76    73    74    1
    77   120   119    1
    78   120   122    1
    79    74    75    1
    80     1     2    1
    81    86    87    1
    82    86    85    1
    83   108   109    1
    84   108   105    1
    85    27    28    1
    86     6     5    1
    87     2     5    1
    88    88    87    2
    89    87    96   am
    90   109   110    1
    91    75    76    2
    92    75    81   am
    93   105   104    1
    94   105   106    1
    95     5     7    1
    96   110   111    1
    97    28    29    1
    98    28    31    1
    99    96    97    1
   100    29    30    2
   101    81    82    1
   102   111   112    2
   103   107   106    2
   104    97   100    1
   105    97    98    1
   106   113   112    1
   107    31    32    1
   108   112   114    1
   109   102   101   ar
   110   100   101    1
   111    33    32    1
   112    82    83    1
   113    83    84    2
   114    98    99    2
   115   101   103   ar
   116    32    34    1
