@<TRIPOS>MOLECULE
tmp/1wplF00.pdb
 78 71 0 0 0
SMALL
GASTEIGER

@<TRIPOS>ATOM
      1  N         49.5380   24.0440   19.4000 N.3    71  ASP71      -0.1225
      2  CA        49.8170   22.7610   18.7840 C.3    71  ASP71       0.1805
      3  C         49.2100   21.6590   19.6480 C.2    71  ASP71       0.2598
      4  O         49.8830   21.0470   20.4820 O.2    71  ASP71      -0.2718
      5  CB        51.3310   22.5790   18.6380 C.3    71  ASP71       0.1424
      6  CG        51.6960   21.2800   17.9700 C.2    71  ASP71       0.3668
      7  OD1       50.8930   20.7860   17.1480 O.co2  71  ASP71      -0.2456
      8  OD2       52.7910   20.7610   18.2600 O.co2  71  ASP71      -0.2456
      9  N         47.9170   21.4310   19.4540 N.am   72  GLU72      -0.1965
     10  CA        47.2030   20.4120   20.2070 C.3    72  GLU72       0.1733
     11  C         46.0050   19.9440   19.4020 C.2    72  GLU72       0.2616
     12  O         45.5490   20.6330   18.5020 O.2    72  GLU72      -0.2715
     13  CB        46.7540   20.9690   21.5580 C.3    72  GLU72       0.0429
     14  CG        45.8100   22.1340   21.4420 C.3    72  GLU72       0.1163
     15  CD        45.7170   22.9350   22.7330 C.2    72  GLU72       0.3649
     16  OE1       46.6720   23.6700   23.0560 O.co2  72  GLU72      -0.2457
     17  OE2       44.6900   22.8250   23.4350 O.co2  72  GLU72      -0.2457
     18  N         45.5130   18.7560   19.7100 N.am   73  MET73      -0.1977
     19  CA        44.3730   18.2530   18.9840 C.3    73  MET73       0.1605
     20  C         43.0810   18.8360   19.5490 C.2    73  MET73       0.2287
     21  O         42.8410   18.8580   20.7640 O.2    73  MET73      -0.2864
     22  CB        44.3220   16.7270   19.0200 C.3    73  MET73       0.0413
     23  CG        43.3260   16.1770   18.0270 C.3    73  MET73       0.0598
     24  SD        43.1400   14.4350   18.1190 S.3    73  MET73      -0.1393
     25  CE        44.5890   13.8270   17.2690 C.3    73  MET73       0.0692
     26  N         44.2300   19.0710   13.7830 N.3   101  LEU101     -0.1245
     27  CA        45.5100   19.4560   14.3500 C.3   101  LEU101      0.1561
     28  C         45.8490   20.6850   13.5300 C.2   101  LEU101      0.2260
     29  O         46.0370   20.5990   12.3140 O.2   101  LEU101     -0.2867
     30  CB        46.5490   18.3520   14.1120 C.3   101  LEU101      0.0270
     31  CG        47.2570   17.6240   15.2610 C.3   101  LEU101      0.0019
     32  CD1       46.8200   18.1090   16.6320 C.3   101  LEU101      0.0001
     33  CD2       46.9850   16.1590   15.0940 C.3   101  LEU101      0.0001
     34  N         47.2450   20.4960    9.8580 N.3   144  ALA144     -0.1245
     35  CA        48.1900   19.3990    9.7450 C.3   144  ALA144      0.1562
     36  C         47.3670   18.1740    9.3560 C.2   144  ALA144      0.2260
     37  O         47.7950   17.3210    8.5740 O.2   144  ALA144     -0.2867
     38  CB        48.8820   19.1640   11.0770 C.3   144  ALA144      0.0290
     39  N         47.8090   14.2340    8.7310 N.3   177  VAL177     -0.1245
     40  CA        48.4510   13.4400    9.7580 C.3   177  VAL177      0.1561
     41  C         47.4760   12.4880   10.4220 C.2   177  VAL177      0.2260
     42  O         47.8910   11.5330   11.0820 O.2   177  VAL177     -0.2867
     43  CB        49.0790   14.3290   10.8230 C.3   177  VAL177      0.0252
     44  CG1       50.1940   15.1520   10.2060 C.3   177  VAL177      0.0019
     45  CG2       48.0110   15.2280   11.4240 C.3   177  VAL177      0.0019
     46  N         49.8250    9.3130   10.4450 N.3   181  ASP181     -0.1239
     47  CA        50.3300    8.9400   11.7630 C.3   181  ASP181      0.1674
     48  C         49.4050    8.0280   12.5710 C.2   181  ASP181      0.2266
     49  O         48.2940    8.4170   12.9440 O.2   181  ASP181     -0.2867
     50  CB        50.6200   10.2260   12.5540 C.3   181  ASP181      0.1410
     51  CG        51.4940    9.9970   13.7800 C.2   181  ASP181      0.3668
     52  OD1       51.3410    8.9530   14.4470 O.co2 181  ASP181     -0.2456
     53  OD2       52.3230   10.8780   14.0960 O.co2 181  ASP181     -0.2456
     54  N         49.6420    7.1290   15.6420 N.3   183  LYS183     -0.1231
     55  CA        49.4470    7.6620   16.9830 C.3   183  LYS183      0.1693
     56  C         48.3530    8.7020   16.9550 C.2   183  LYS183      0.2592
     57  O         47.5240    8.7660   17.8540 O.2   183  LYS183     -0.2718
     58  CB        50.7340    8.2990   17.5130 C.3   183  LYS183      0.0285
     59  CG        51.9320    7.3650   17.5580 C.3   183  LYS183      0.0035
     60  CD        53.1310    8.0370   18.2070 C.3   183  LYS183      0.0206
     61  CE        53.6270    9.2070   17.3690 C.3   183  LYS183      0.1093
     62  NZ        53.9780    8.7680   15.9920 N.3   183  LYS183     -0.1314
     63  N         48.3520    9.5200   15.9140 N.am  184  THR184     -0.1953
     64  CA        47.3500   10.5630   15.7820 C.3   184  THR184      0.1897
     65  C         45.9430    9.9840   15.6200 C.2   184  THR184      0.2313
     66  O         45.0410   10.3110   16.3860 O.2   184  THR184     -0.2863
     67  CB        47.6810   11.4810   14.5770 C.3   184  THR184      0.1794
     68  OG1       48.9390   12.1150   14.8150 O.3   184  THR184     -0.2208
     69  CG2       46.6280   12.5720   14.3940 C.3   184  THR184      0.0378
     70  N         44.4920    8.3240   18.6570 N.3   187  GLU187     -0.1245
     71  CA        44.1480    9.2890   19.6930 C.3   187  GLU187      0.1567
     72  C         42.7720    9.8980   19.4800 C.2   187  GLU187      0.2260
     73  O         41.9620    9.9780   20.4040 O.2   187  GLU187     -0.2867
     74  CB        45.1910   10.3950   19.7170 C.3   187  GLU187      0.0388
     75  CG        44.8620   11.5320   20.6460 C.3   187  GLU187      0.1160
     76  CD        45.9250   12.6040   20.6530 C.2   187  GLU187      0.3649
     77  OE1       45.7270   13.6170   21.3460 O.co2 187  GLU187     -0.2457
     78  OE2       46.9600   12.4360   19.9740 O.co2 187  GLU187     -0.2457
@<TRIPOS>BOND
     1    37    36    2
     2    39    40    1
     3    36    35    1
     4    35    34    1
     5    35    38    1
     6    40    41    1
     7    40    43    1
     8    44    43    1
     9    41    42    2
    10    46    47    1
    11    43    45    1
    12    47    50    1
    13    47    48    1
    14    29    28    2
    15    50    51    1
    16    48    49    2
    17    28    27    1
    18    51    53   ar
    19    51    52   ar
    20    26    27    1
    21    30    27    1
    22    30    31    1
    23    69    67    1
    24    67    68    1
    25    67    64    1
    26    33    31    1
    27    31    32    1
    28    65    64    1
    29    65    66    2
    30    54    55    1
    31    64    63    1
    32    63    56   am
    33    62    61    1
    34    56    55    1
    35    56    57    2
    36    55    58    1
    37     7     6   ar
    38    25    24    1
    39    61    60    1
    40    58    59    1
    41    59    60    1
    42     6     8   ar
    43     6     5    1
    44    23    24    1
    45    23    22    1
    46    12    11    2
    47     5     2    1
    48    70    71    1
    49     2     1    1
    50     2     3    1
    51    19    22    1
    52    19    20    1
    53    19    18    1
    54    11    18   am
    55    11    10    1
    56     9     3   am
    57     9    10    1
    58    72    71    1
    59    72    73    2
    60    20    21    2
    61     3     4    2
    62    71    74    1
    63    74    75    1
    64    78    76   ar
    65    10    13    1
    66    75    76    1
    67    76    77   ar
    68    14    13    1
    69    14    15    1
    70    15    16   ar
    71    15    17   ar
