@<TRIPOS>MOLECULE
tmp/1wprA00.pdb
 128 126 0 0 0
SMALL
GASTEIGER

@<TRIPOS>ATOM
      1  N         54.6320   50.3630   66.9170 N.3    28  PHE28      -0.1241
      2  CA        56.0540   50.1980   67.1630 C.3    28  PHE28       0.1605
      3  C         56.7400   49.0700   66.4050 C.2    28  PHE28       0.2264
      4  O         56.2000   47.9640   66.2450 O.2    28  PHE28      -0.2867
      5  CB        56.3040   49.9740   68.6420 C.3    28  PHE28       0.0534
      6  CG        57.7080   49.5420   68.9460 C.ar   28  PHE28      -0.0203
      7  CD1       58.0910   48.2100   68.7810 C.ar   28  PHE28      -0.0042
      8  CD2       58.6650   50.4770   69.3420 C.ar   28  PHE28      -0.0042
      9  CE1       59.4000   47.8120   69.0000 C.ar   28  PHE28      -0.0003
     10  CE2       59.9760   50.0930   69.5650 C.ar   28  PHE28      -0.0003
     11  CZ        60.3550   48.7570   69.3940 C.ar   28  PHE28      -0.0000
     12  N         47.8130   52.4120   64.8120 N.3    94  HIS94      -0.1226
     13  CA        47.9110   51.2620   65.7130 C.3    94  HIS94       0.1752
     14  C         48.8500   51.5120   66.8960 C.2    94  HIS94       0.2597
     15  O         49.9370   52.0670   66.7310 O.2    94  HIS94      -0.2718
     16  CB        48.4020   50.0220   64.9560 C.3    94  HIS94       0.0759
     17  CG        48.8310   48.9060   65.8550 C.ar   94  HIS94       0.0818
     18  ND1       50.0700   48.3100   65.7590 N.ar   94  HIS94      -0.2268
     19  CD2       48.2200   48.3330   66.9240 C.ar   94  HIS94       0.1154
     20  CE1       50.2080   47.4230   66.7360 C.ar   94  HIS94       0.1986
     21  NE2       49.1030   47.4190   67.4580 N.ar   94  HIS94      -0.2212
     22  N         48.4390   51.1030   68.0920 N.am   95  SER95      -0.1938
     23  CA        49.3100   51.2510   69.2600 C.3    95  SER95       0.2055
     24  C         49.8190   52.7190   69.3630 C.2    95  SER95       0.2642
     25  O         49.0210   53.6860   69.3610 O.2    95  SER95      -0.2714
     26  CB        50.5050   50.2740   69.0920 C.3    95  SER95       0.2130
     27  OG        50.8480   49.5640   70.2930 O.3    95  SER95      -0.2179
     28  N         51.1400   52.8780   69.4250 N.am   96  VAL96      -0.1977
     29  CA        51.7330   54.2060   69.5260 C.3    96  VAL96       0.1596
     30  C         51.2750   55.0630   68.3800 C.2    96  VAL96       0.2287
     31  O         51.1440   56.2810   68.5130 O.2    96  VAL96      -0.2864
     32  CB        53.2930   54.1570   69.5060 C.3    96  VAL96       0.0276
     33  CG1       53.8810   55.4980   69.9470 C.3    96  VAL96       0.0022
     34  CG2       53.7650   53.0960   70.4440 C.3    96  VAL96       0.0022
     35  N         51.4590   53.3920   79.8050 N.3   124  TYR124     -0.1241
     36  CA        51.6330   51.9820   80.1630 C.3   124  TYR124      0.1605
     37  C         51.8350   51.7040   81.6550 C.2   124  TYR124      0.2264
     38  O         51.8220   50.5460   82.0890 O.2   124  TYR124     -0.2867
     39  CB        52.7940   51.3790   79.3550 C.3   124  TYR124      0.0534
     40  CG        52.5060   51.3900   77.8860 C.ar  124  TYR124     -0.0201
     41  CD1       52.6710   52.5560   77.1280 C.ar  124  TYR124     -0.0009
     42  CD2       51.9690   50.2620   77.2590 C.ar  124  TYR124     -0.0009
     43  CE1       52.3050   52.6000   75.7870 C.ar  124  TYR124      0.0417
     44  CE2       51.6020   50.2970   75.9260 C.ar  124  TYR124      0.0417
     45  CZ        51.7730   51.4700   75.1900 C.ar  124  TYR124      0.1957
     46  OH        51.4150   51.4870   73.8480 O.3   124  TYR124     -0.2866
     47  N         65.4030   40.2710   72.8640 N.3   154  TRP154     -0.1241
     48  CA        64.2530   41.0920   73.1900 C.3   154  TRP154      0.1605
     49  C         63.1980   41.0360   72.0770 C.2   154  TRP154      0.2264
     50  O         62.0140   40.8980   72.3580 O.2   154  TRP154     -0.2867
     51  CB        64.6770   42.5440   73.3940 C.3   154  TRP154      0.0550
     52  CG        63.4940   43.4560   73.5390 C.ar  154  TRP154      0.0003
     53  CD1       62.8120   43.7570   74.6920 C.ar  154  TRP154      0.0946
     54  CD2       62.8000   44.1200   72.4790 C.ar  154  TRP154      0.0152
     55  NE1       61.7340   44.5660   74.4100 N.ar  154  TRP154     -0.2442
     56  CE2       61.7000   44.8050   73.0630 C.ar  154  TRP154      0.0810
     57  CE3       63.0000   44.2020   71.0940 C.ar  154  TRP154      0.0012
     58  CZ2       60.8030   45.5620   72.3090 C.ar  154  TRP154      0.0191
     59  CZ3       62.1170   44.9500   70.3440 C.ar  154  TRP154      0.0001
     60  CH2       61.0260   45.6240   70.9540 C.ar  154  TRP154      0.0015
     61  N         59.4730   40.1370   73.2100 N.3   158  PHE158     -0.1241
     62  CA        58.4220   41.1000   73.0210 C.3   158  PHE158      0.1605
     63  C         57.4130   40.7510   71.9330 C.2   158  PHE158      0.2264
     64  O         56.2290   41.0960   72.0510 O.2   158  PHE158     -0.2867
     65  CB        59.0130   42.4910   72.7650 C.3   158  PHE158      0.0534
     66  CG        58.1780   43.6010   73.3510 C.ar  158  PHE158     -0.0203
     67  CD1       57.5860   44.5590   72.5330 C.ar  158  PHE158     -0.0042
     68  CD2       57.8980   43.6220   74.7300 C.ar  158  PHE158     -0.0042
     69  CE1       56.7170   45.5140   73.0750 C.ar  158  PHE158     -0.0003
     70  CE2       57.0360   44.5710   75.2790 C.ar  158  PHE158     -0.0003
     71  CZ        56.4380   45.5220   74.4470 C.ar  158  PHE158     -0.0000
     72  N         53.3490   40.9630   72.7870 N.3   162  VAL162     -0.1245
     73  CA        52.4490   41.7470   71.9630 C.3   162  VAL162      0.1561
     74  C         51.3380   40.9040   71.3370 C.2   162  VAL162      0.2260
     75  O         50.1980   41.3310   71.3250 O.2   162  VAL162     -0.2867
     76  CB        53.2750   42.5080   70.8930 C.3   162  VAL162      0.0252
     77  CG1       52.3960   43.2600   69.9140 C.3   162  VAL162      0.0019
     78  CG2       54.1710   43.4830   71.5950 C.3   162  VAL162      0.0019
     79  N         60.6560   43.2980   64.2610 N.3   179  PHE179     -0.1241
     80  CA        61.4250   43.8390   65.3710 C.3   179  PHE179      0.1605
     81  C         62.9150   43.6720   65.1370 C.2   179  PHE179      0.2264
     82  O         63.6950   44.5880   65.3750 O.2   179  PHE179     -0.2867
     83  CB        61.0280   43.1430   66.6670 C.3   179  PHE179      0.0534
     84  CG        59.6300   43.4560   67.1070 C.ar  179  PHE179     -0.0203
     85  CD1       58.9190   44.5040   66.5120 C.ar  179  PHE179     -0.0042
     86  CD2       59.0320   42.7330   68.1390 C.ar  179  PHE179     -0.0042
     87  CE1       57.6370   44.8320   66.9330 C.ar  179  PHE179     -0.0003
     88  CE2       57.7370   43.0580   68.5790 C.ar  179  PHE179     -0.0003
     89  CZ        57.0430   44.1100   67.9710 C.ar  179  PHE179     -0.0000
     90  N         60.9310   53.1270   71.7180 N.3   191  ALA191     -0.1245
     91  CA        60.3110   52.4110   72.8390 C.3   191  ALA191      0.1562
     92  C         60.3010   53.2390   74.1180 C.2   191  ALA191      0.2260
     93  O         59.3180   53.2340   74.8570 O.2   191  ALA191     -0.2867
     94  CB        61.0320   51.0910   73.0980 C.3   191  ALA191      0.0290
     95  N         57.6840   55.7910   73.7920 N.3   194  ALA194     -0.1231
     96  CA        56.3760   55.1870   73.9390 C.3   194  ALA194      0.1694
     97  C         56.0770   54.6680   75.3700 C.2   194  ALA194      0.2592
     98  O         55.1310   55.1300   76.0110 O.2   194  ALA194     -0.2718
     99  CB        56.2300   54.0690   72.9220 C.3   194  ALA194      0.0304
    100  N         56.8780   53.7260   75.8660 N.am  195  PHE195     -0.1976
    101  CA        56.6820   53.1600   77.2120 C.3   195  PHE195      0.1639
    102  C         56.6110   54.1460   78.3800 C.2   195  PHE195      0.2290
    103  O         55.9080   53.9020   79.3490 O.2   195  PHE195     -0.2864
    104  CB        57.8030   52.1870   77.5930 C.3   195  PHE195      0.0560
    105  CG        57.7510   50.8520   76.9000 C.ar  195  PHE195     -0.0200
    106  CD1       56.5480   50.3330   76.4180 C.ar  195  PHE195     -0.0042
    107  CD2       58.9150   50.0540   76.8440 C.ar  195  PHE195     -0.0042
    108  CE1       56.5030   49.0320   75.9020 C.ar  195  PHE195     -0.0003
    109  CE2       58.8850   48.7580   76.3340 C.ar  195  PHE195     -0.0003
    110  CZ        57.6810   48.2380   75.8630 C.ar  195  PHE195     -0.0000
    111  N         49.5210   44.3890   76.3970 N.3   220  ILE220     -0.1245
    112  CA        50.1400   45.6790   76.1540 C.3   220  ILE220      0.1561
    113  C         49.1590   46.7780   76.5040 C.2   220  ILE220      0.2260
    114  O         49.4940   47.7350   77.2040 O.2   220  ILE220     -0.2867
    115  CB        50.5720   45.8150   74.6770 C.3   220  ILE220      0.0252
    116  CG1       51.3420   44.5560   74.2500 C.3   220  ILE220      0.0019
    117  CG2       51.4770   47.0080   74.5020 C.3   220  ILE220      0.0019
    118  CD1       52.5820   44.2460   75.0890 C.3   220  ILE220      0.0001
    119  N         47.4240   42.2900   70.8230 N.3   246  HIS246     -0.1241
    120  CA        47.6350   43.6730   70.4740 C.3   246  HIS246      0.1621
    121  C         47.7270   44.0660   69.0120 C.2   246  HIS246      0.2264
    122  O         47.7620   45.2650   68.7150 O.2   246  HIS246     -0.2867
    123  CB        48.8810   44.1460   71.1690 C.3   246  HIS246      0.0745
    124  CG        48.9290   45.6190   71.3340 C.ar  246  HIS246      0.0817
    125  ND1       47.8660   46.3340   71.8490 N.ar  246  HIS246     -0.2268
    126  CD2       49.9010   46.5180   71.0570 C.ar  246  HIS246      0.1154
    127  CE1       48.1850   47.6140   71.8810 C.ar  246  HIS246      0.1986
    128  NE2       49.4140   47.7530   71.4060 N.ar  246  HIS246     -0.2212
@<TRIPOS>BOND
     1    79    80    1
     2    12    13    1
     3    16    13    1
     4    16    17    1
     5    81    80    1
     6    81    82    2
     7    80    83    1
     8    13    14    1
     9    18    17   ar
    10    18    20   ar
    11    17    19   ar
    12     4     3    2
    13     3     2    1
    14    85    87   ar
    15    85    84   ar
    16    83    84    1
    17    15    14    2
    18    20    21   ar
    19    14    22   am
    20     1     2    1
    21    19    21   ar
    22    87    89   ar
    23    84    86   ar
    24     2     5    1
    25    89    88   ar
    26    22    23    1
    27    86    88   ar
    28    30    31    2
    29    30    29    1
    30     5     6    1
    31   122   121    2
    32     7     6   ar
    33     7     9   ar
    34     6     8   ar
    35     9    11   ar
    36   121   120    1
    37    26    23    1
    38    26    27    1
    39    23    24    1
    40     8    10   ar
    41    25    24    2
    42    24    28   am
    43    11    10   ar
    44    28    29    1
    45    32    29    1
    46    32    33    1
    47    32    34    1
    48    77    76    1
    49    59    60   ar
    50    59    57   ar
    51   120   119    1
    52   120   123    1
    53    76    78    1
    54    76    73    1
    55    60    58   ar
    56   126   124   ar
    57   126   128   ar
    58    57    54   ar
    59   123   124    1
    60    75    74    2
    61   124   125   ar
    62    74    73    1
    63   128   127   ar
    64    90    91    1
    65   125   127   ar
    66    63    64    2
    67    63    62    1
    68    73    72    1
    69    49    50    2
    70    49    48    1
    71    58    56   ar
    72    54    56   ar
    73    54    52   ar
    74    67    69   ar
    75    67    66   ar
    76    65    62    1
    77    65    66    1
    78    91    94    1
    79    91    92    1
    80    47    48    1
    81    99    96    1
    82    62    61    1
    83    56    55   ar
    84    69    71   ar
    85    48    51    1
    86    66    68   ar
    87    51    52    1
    88    52    53   ar
    89    95    96    1
    90    46    45    1
    91    96    97    1
    92    92    93    2
    93   116   115    1
    94   116   118    1
    95    55    53   ar
    96    71    70   ar
    97   117   115    1
    98   115   112    1
    99    68    70   ar
   100    45    43   ar
   101    45    44   ar
   102    97   100   am
   103    97    98    2
   104    43    41   ar
   105   110   108   ar
   106   110   109   ar
   107   100   101    1
   108   108   106   ar
   109    44    42   ar
   110   112   111    1
   111   112   113    1
   112   109   107   ar
   113   106   105   ar
   114   113   114    2
   115   107   105   ar
   116   105   104    1
   117    41    40   ar
   118   101   104    1
   119   101   102    1
   120    42    40   ar
   121    40    39    1
   122   102   103    2
   123    39    36    1
   124    35    36    1
   125    36    37    1
   126    37    38    2
