@<TRIPOS>MOLECULE
tmp/1wqvB00.pdb
 178 175 0 0 0
SMALL
GASTEIGER

@<TRIPOS>ATOM
      1  N         31.8220   14.4490    4.2650 N.3    41  HIS41      -0.1241
      2  CA        32.2850   13.1400    3.8250 C.3    41  HIS41       0.1621
      3  C         31.1960   12.3140    3.1370 C.2    41  HIS41       0.2264
      4  O         31.4860   11.3070    2.4880 O.2    41  HIS41      -0.2867
      5  CB        32.9150   12.3590    4.9960 C.3    41  HIS41       0.0745
      6  CG        31.9530   11.5080    5.7690 C.ar   41  HIS41       0.0817
      7  ND1       31.3800   11.9180    6.9550 N.ar   41  HIS41      -0.2268
      8  CD2       31.4990   10.2510    5.5460 C.ar   41  HIS41       0.1154
      9  CE1       30.6210   10.9470    7.4310 C.ar   41  HIS41       0.1986
     10  NE2       30.6760    9.9240    6.5950 N.ar   41  HIS41      -0.2212
     11  N         32.1340   12.1950   -0.6400 N.3    44  ASP44      -0.1239
     12  CA        33.4550   11.7980   -1.1080 C.3    44  ASP44       0.1674
     13  C         33.4370   11.0130   -2.4160 C.2    44  ASP44       0.2266
     14  O         34.2820   11.2220   -3.2770 O.2    44  ASP44      -0.2867
     15  CB        34.1690   10.9510   -0.0560 C.3    44  ASP44       0.1410
     16  CG        34.6770   11.7630    1.1090 C.2    44  ASP44       0.3668
     17  OD1       34.6030   13.0070    1.0670 O.co2  44  ASP44      -0.2456
     18  OD2       35.1650   11.1440    2.0730 O.co2  44  ASP44      -0.2456
     19  N         37.9440   11.8060    2.7500 N.3    85  GLY85      -0.1210
     20  CA        38.6330   10.6990    3.3800 C.3    85  GLY85       0.1956
     21  C         39.2080   11.0170    4.7460 C.2    85  GLY85       0.2613
     22  O         39.5920   10.1030    5.4680 O.2    85  GLY85      -0.2717
     23  N         39.2820   12.2990    5.1030 N.am   86  THR86      -0.1938
     24  CA        39.8030   12.6870    6.4090 C.3    86  THR86       0.2028
     25  C         38.6710   13.2630    7.2530 C.2    86  THR86       0.2642
     26  O         37.6020   13.5820    6.7300 O.2    86  THR86      -0.2714
     27  CB        40.9710   13.7050    6.2930 C.3    86  THR86       0.1808
     28  OG1       40.5120   14.9300    5.7070 O.3    86  THR86      -0.2208
     29  CG2       42.0700   13.1220    5.4300 C.3    86  THR86       0.0379
     30  N         38.9270   13.4100    8.5500 N.am   87  THR87      -0.1950
     31  CA        37.9360   13.8690    9.5150 C.3    87  THR87       0.1897
     32  C         37.6150   15.3550    9.7520 C.2    87  THR87       0.2313
     33  O         36.4840   15.6910   10.1100 O.2    87  THR87      -0.2863
     34  CB        38.2550   13.2600   10.9110 C.3    87  THR87       0.1794
     35  OG1       39.5720   13.6540   11.3120 O.3    87  THR87      -0.2208
     36  CG2       38.1810   11.7430   10.8750 C.3    87  THR87       0.0378
     37  N         33.9840   18.3140    8.8740 N.3    90  ASP90      -0.1239
     38  CA        33.0150   17.4250    8.2580 C.3    90  ASP90       0.1674
     39  C         31.6220   18.0540    8.2530 C.2    90  ASP90       0.2266
     40  O         30.7460   17.6550    9.0230 O.2    90  ASP90      -0.2867
     41  CB        32.9950   16.1040    9.0120 C.3    90  ASP90       0.1410
     42  CG        32.4430   14.9860    8.1860 C.2    90  ASP90       0.3668
     43  OD1       31.9470   15.2690    7.0780 O.co2  90  ASP90      -0.2456
     44  OD2       32.5030   13.8300    8.6420 O.co2  90  ASP90      -0.2456
     45  N         27.2110   -2.5110   14.6660 N.3   137  ASP137     -0.1239
     46  CA        28.4360   -2.2320   13.9380 C.3   137  ASP137      0.1674
     47  C         28.5480   -3.2920   12.8430 C.2   137  ASP137      0.2266
     48  O         28.5360   -4.4890   13.1230 O.2   137  ASP137     -0.2867
     49  CB        29.6330   -2.2890   14.8980 C.3   137  ASP137      0.1410
     50  CG        30.9420   -1.9060   14.2310 C.2   137  ASP137      0.3668
     51  OD1       30.9090   -1.1640   13.2260 O.co2 137  ASP137     -0.2456
     52  OD2       32.0060   -2.3320   14.7220 O.co2 137  ASP137     -0.2456
     53  N         42.9300    9.6550   14.4140 N.3   169  PRO169     -0.2116
     54  CA        42.6850   11.0650   14.0940 C.3   169  PRO169      0.1372
     55  C         42.5880   11.9420   15.3440 C.2   169  PRO169      0.2244
     56  O         42.0410   11.5210   16.3650 O.2   169  PRO169     -0.2868
     57  CB        41.3630   11.0190   13.3300 C.3   169  PRO169      0.0268
     58  CG        41.3320    9.6380   12.7600 C.3   169  PRO169      0.0207
     59  CD        41.8500    8.8060   13.8900 C.3   169  PRO169      0.0892
     60  N         25.5150    4.3850   20.3420 N.3   186  ASP186     -0.1225
     61  CA        26.3110    5.3050   19.5490 C.3   186  ASP186      0.1805
     62  C         25.6260    5.4170   18.1840 C.2   186  ASP186      0.2598
     63  O         24.7400    4.6180   17.8730 O.2   186  ASP186     -0.2718
     64  CB        27.7190    4.6950   19.4290 C.3   186  ASP186      0.1424
     65  CG        28.6990    5.5610   18.6610 C.2   186  ASP186      0.3668
     66  OD1       28.4830    6.7850   18.5320 O.co2 186  ASP186     -0.2456
     67  OD2       29.7140    4.9990   18.2010 O.co2 186  ASP186     -0.2456
     68  N         25.9890    6.4240   17.3930 N.am  187  SER187     -0.1938
     69  CA        25.4280    6.5520   16.0550 C.3   187  SER187      0.2055
     70  C         26.3650    5.7140   15.1780 C.2   187  SER187      0.2643
     71  O         27.3290    5.1350   15.6860 O.2   187  SER187     -0.2714
     72  CB        25.3980    8.0140   15.6030 C.3   187  SER187      0.2130
     73  OG        26.6660    8.6310   15.7100 O.3   187  SER187     -0.2179
     74  N         26.1050    5.6330   13.8790 N.am  188  CYS188     -0.1953
     75  CA        26.9530    4.8100   13.0240 C.3   188  CYS188      0.1843
     76  C         27.0570    5.3640   11.6130 C.2   188  CYS188      0.2625
     77  O         26.4190    6.3530   11.2780 O.2   188  CYS188     -0.2714
     78  CB        26.4000    3.3790   13.0070 C.3   188  CYS188      0.0997
     79  SG        27.5500    2.0650   12.4760 S.3   188  CYS188     -0.0797
     80  N         27.8680    4.7120   10.7930 N.am  189  LYS189     -0.1977
     81  CA        28.1100    5.1110    9.4060 C.3   189  LYS189      0.1596
     82  C         26.9030    5.6590    8.6280 C.2   189  LYS189      0.2287
     83  O         26.9570    6.7640    8.0940 O.2   189  LYS189     -0.2864
     84  CB        28.7150    3.9250    8.6460 C.3   189  LYS189      0.0298
     85  CG        29.1760    4.2520    7.2460 C.3   189  LYS189      0.0038
     86  CD        29.9720    3.1010    6.6580 C.3   189  LYS189      0.0206
     87  CE        30.5150    3.4490    5.2790 C.3   189  LYS189      0.1093
     88  NZ        31.3840    2.3570    4.7490 N.3   189  LYS189     -0.1314
     89  N         25.6060    9.2280    9.2550 N.3   192  SER192     -0.1217
     90  CA        26.4290   10.3760    8.8810 C.3   192  SER192      0.1889
     91  C         25.6170   11.5430    8.3330 C.2   192  SER192      0.2288
     92  O         24.7350   11.3580    7.5010 O.2   192  SER192     -0.2866
     93  CB        27.4710    9.9600    7.8410 C.3   192  SER192      0.2089
     94  OG        28.3400    8.9730    8.3670 O.3   192  SER192     -0.2183
     95  N         26.6210   13.9640   12.8220 N.3   210  VAL210     -0.1231
     96  CA        27.2180   12.6410   12.9330 C.3   210  VAL210      0.1692
     97  C         28.3620   12.6370   11.9300 C.2   210  VAL210      0.2593
     98  O         28.1450   12.8440   10.7340 O.2   210  VAL210     -0.2718
     99  CB        26.1910   11.5510   12.5860 C.3   210  VAL210      0.0266
    100  CG1       26.8040   10.1790   12.7480 C.3   210  VAL210      0.0020
    101  CG2       24.9810   11.6940   13.4880 C.3   210  VAL210      0.0020
    102  N         29.5780   12.4010   12.4210 N.am  211  SER211     -0.1938
    103  CA        30.7630   12.4320   11.5680 C.3   211  SER211      0.2055
    104  C         31.6000   11.1590   11.4990 C.2   211  SER211      0.2643
    105  O         31.7150   10.5450   10.4390 O.2   211  SER211     -0.2714
    106  CB        31.6640   13.5900   11.9990 C.3   211  SER211      0.2130
    107  OG        32.7650   13.7170   11.1230 O.3   211  SER211     -0.2179
    108  N         32.2060   10.7740   12.6160 N.am  212  TRP212     -0.1959
    109  CA        33.0390    9.5770   12.6250 C.3   212  TRP212      0.1771
    110  C         33.2150    8.9710   14.0070 C.2   212  TRP212      0.2620
    111  O         32.5850    9.3920   14.9660 O.2   212  TRP212     -0.2715
    112  CB        34.4250    9.8890   12.0420 C.3   212  TRP212      0.0590
    113  CG        35.2380   10.8650   12.8590 C.ar  212  TRP212      0.0006
    114  CD1       35.0890   12.2210   12.9050 C.ar  212  TRP212      0.0946
    115  CD2       36.3320   10.5530   13.7310 C.ar  212  TRP212      0.0152
    116  NE1       36.0220   12.7720   13.7470 N.ar  212  TRP212     -0.2442
    117  CE2       36.7990   11.7700   14.2690 C.ar  212  TRP212      0.0810
    118  CE3       36.9640    9.3650   14.1080 C.ar  212  TRP212      0.0012
    119  CZ2       37.8720   11.8330   15.1650 C.ar  212  TRP212      0.0191
    120  CZ3       38.0300    9.4290   15.0000 C.ar  212  TRP212      0.0001
    121  CH2       38.4720   10.6570   15.5170 C.ar  212  TRP212      0.0015
    122  N         34.0940    7.9810   14.0900 N.am  213  GLY213     -0.1940
    123  CA        34.3730    7.3250   15.3510 C.3   213  GLY213      0.2014
    124  C         34.9640    5.9520   15.1140 C.2   213  GLY213      0.2639
    125  O         34.9380    5.4530   13.9900 O.2   213  GLY213     -0.2714
    126  N         35.5100    5.3430   16.1610 N.am  214  GLN214     -0.1963
    127  CA        36.0930    4.0110   16.0440 C.3   214  GLN214      0.1733
    128  C         34.9520    3.0110   15.9720 C.2   214  GLN214      0.2617
    129  O         34.2580    2.7730   16.9630 O.2   214  GLN214     -0.2715
    130  CB        36.9730    3.7090   17.2580 C.3   214  GLN214      0.0408
    131  CG        37.6350    2.3550   17.2050 C.3   214  GLN214      0.0908
    132  CD        38.4520    2.1670   15.9420 C.2   214  GLN214      0.2608
    133  OE1       39.2990    3.0000   15.6080 O.2   214  GLN214     -0.2717
    134  NE2       38.2050    1.0670   15.2320 N.am  214  GLN214     -0.0878
    135  N         34.7570    2.4310   14.7920 N.am  215  GLY215     -0.1940
    136  CA        33.6750    1.4830   14.6040 C.3   215  GLY215      0.2014
    137  C         32.3740    2.1400   15.0230 C.2   215  GLY215      0.2639
    138  O         32.1850    3.3390   14.8150 O.2   215  GLY215     -0.2714
    139  N         31.4770    1.3570   15.6130 N.am  216  CYS216     -0.1967
    140  CA        30.1930    1.8640   16.0780 C.3   216  CYS216      0.1712
    141  C         29.8730    1.2250   17.4210 C.2   216  CYS216      0.2296
    142  O         29.5860    0.0280   17.5000 O.2   216  CYS216     -0.2864
    143  CB        29.0910    1.5480   15.0620 C.3   216  CYS216      0.0983
    144  SG        29.2690    2.4540   13.4960 S.3   216  CYS216     -0.0798
    145  N         34.1820    6.8500   21.8290 N.3   222  PHE222     -0.1227
    146  CA        32.9900    7.6740   21.7420 C.3   222  PHE222      0.1736
    147  C         32.7590    8.0940   20.2970 C.2   222  PHE222      0.2596
    148  O         33.6670    8.0410   19.4650 O.2   222  PHE222     -0.2718
    149  CB        33.1620    8.9330   22.6000 C.3   222  PHE222      0.0547
    150  CG        33.2740    8.6600   24.0730 C.ar  222  PHE222     -0.0202
    151  CD1       32.1410    8.6010   24.8710 C.ar  222  PHE222     -0.0042
    152  CD2       34.5130    8.4470   24.6590 C.ar  222  PHE222     -0.0042
    153  CE1       32.2400    8.3330   26.2260 C.ar  222  PHE222     -0.0003
    154  CE2       34.6170    8.1760   26.0140 C.ar  222  PHE222     -0.0003
    155  CZ        33.4750    8.1200   26.7970 C.ar  222  PHE222     -0.0000
    156  N         31.5370    8.5140   20.0000 N.am  223  GLY223     -0.1942
    157  CA        31.2420    8.9760   18.6590 C.3   223  GLY223      0.2014
    158  C         31.7430   10.4000   18.5430 C.2   223  GLY223      0.2639
    159  O         31.8160   11.1170   19.5480 O.2   223  GLY223     -0.2714
    160  N         32.0980   10.8170   17.3330 N.am  224  VAL224     -0.1963
    161  CA        32.5880   12.1710   17.1290 C.3   224  VAL224      0.1727
    162  C         31.6780   12.9360   16.1770 C.2   224  VAL224      0.2616
    163  O         31.3460   12.4660   15.0910 O.2   224  VAL224     -0.2715
    164  CB        34.0290   12.1770   16.5720 C.3   224  VAL224      0.0290
    165  CG1       34.5850   13.5880   16.6140 C.3   224  VAL224      0.0023
    166  CG2       34.9190   11.2370   17.3880 C.3   224  VAL224      0.0023
    167  N         31.2800   14.1300   16.5930 N.am  225  TYR225     -0.1974
    168  CA        30.3850   14.9530   15.7950 C.3   225  TYR225      0.1639
    169  C         31.0510   16.2750   15.4310 C.2   225  TYR225      0.2290
    170  O         31.9270   16.7580   16.1530 O.2   225  TYR225     -0.2864
    171  CB        29.0890   15.2170   16.5810 C.3   225  TYR225      0.0560
    172  CG        28.4050   13.9520   17.0580 C.ar  225  TYR225     -0.0198
    173  CD1       28.8880   13.2460   18.1530 C.ar  225  TYR225     -0.0009
    174  CD2       27.3420   13.4100   16.3520 C.ar  225  TYR225     -0.0009
    175  CE1       28.3410   12.0350   18.5210 C.ar  225  TYR225      0.0417
    176  CE2       26.7890   12.1980   16.7150 C.ar  225  TYR225      0.0417
    177  CZ        27.2940   11.5140   17.7930 C.ar  225  TYR225      0.1957
    178  OH        26.7820   10.2840   18.1230 O.3   225  TYR225     -0.2866
@<TRIPOS>BOND
     1    14    13    2
     2    13    12    1
     3    12    11    1
     4    12    15    1
     5    15    16    1
     6    17    16   ar
     7    16    18   ar
     8     4     3    2
     9    19    20    1
    10     3     2    1
    11    20    21    1
    12     2     1    1
    13     2     5    1
    14    21    23   am
    15    21    22    2
    16    88    87    1
    17     5     6    1
    18    23    24    1
    19    87    86    1
    20    29    27    1
    21     8     6   ar
    22     8    10   ar
    23    28    27    1
    24     6     7   ar
    25    27    24    1
    26    24    25    1
    27    10     9   ar
    28    86    85    1
    29    26    25    2
    30     7     9   ar
    31    43    42   ar
    32    85    84    1
    33    25    30   am
    34    92    91    2
    35    93    94    1
    36    93    90    1
    37    83    82    2
    38    42    44   ar
    39    42    41    1
    40    39    38    1
    41    39    40    2
    42    38    37    1
    43    38    41    1
    44    91    90    1
    45    30    31    1
    46    82    81    1
    47    84    81    1
    48    90    89    1
    49    81    80    1
    50    31    32    1
    51    31    34    1
    52    32    33    2
    53   105   104    2
    54    98    97    2
    55    80    76   am
    56    36    34    1
    57    34    35    1
    58   107   106    1
    59    77    76    2
    60   104   103    1
    61   104   108   am
    62   103   106    1
    63   103   102    1
    64    76    75    1
    65    97   102   am
    66    97    96    1
    67   112   109    1
    68   112   113    1
    69    79    78    1
    70    79   144    1
    71    99   100    1
    72    99    96    1
    73    99   101    1
    74   108   109    1
    75   109   110    1
    76    58    57    1
    77    58    59    1
    78    95    96    1
    79    47    48    2
    80    47    46    1
    81   113   114   ar
    82   113   115   ar
    83   114   116   ar
    84    78    75    1
    85    75    74    1
    86    51    50   ar
    87    57    54    1
    88   144   143    1
    89   115   118   ar
    90   115   117   ar
    91   116   117   ar
    92    74    70   am
    93    59    53    1
    94    46    45    1
    95    46    49    1
    96   125   124    2
    97   110   122   am
    98   110   111    2
    99   122   123    1
   100    54    53    1
   101    54    55    1
   102   118   120   ar
   103    50    52   ar
   104    50    49    1
   105   117   119   ar
   106   136   135    1
   107   136   137    1
   108   135   128   am
   109   138   137    2
   110   120   121   ar
   111   137   139   am
   112   143   140    1
   113   163   162    2
   114   124   123    1
   115   124   126   am
   116   119   121   ar
   117    70    71    2
   118    70    69    1
   119   134   132   am
   120    55    56    2
   121   169   168    1
   122   169   170    2
   123    72    73    1
   124    72    69    1
   125   133   132    2
   126   139   140    1
   127   168   171    1
   128   168   167    1
   129   132   131    1
   130   128   127    1
   131   128   129    2
   132   127   126    1
   133   127   130    1
   134    69    68    1
   135   140   141    1
   136   162   167   am
   137   162   161    1
   138   174   176   ar
   139   174   172   ar
   140   164   165    1
   141   164   161    1
   142   164   166    1
   143   171   172    1
   144   176   177   ar
   145   172   173   ar
   146   161   160    1
   147   131   130    1
   148   160   158   am
   149    68    62   am
   150   141   142    2
   151   177   178    1
   152   177   175   ar
   153    63    62    2
   154   173   175   ar
   155    62    61    1
   156    67    65   ar
   157    66    65   ar
   158   158   157    1
   159   158   159    2
   160   157   156    1
   161    65    64    1
   162    64    61    1
   163   148   147    2
   164    61    60    1
   165   156   147   am
   166   147   146    1
   167   146   145    1
   168   146   149    1
   169   149   150    1
   170   150   152   ar
   171   150   151   ar
   172   152   154   ar
   173   151   153   ar
   174   154   155   ar
   175   153   155   ar
