@<TRIPOS>MOLECULE
tmp/1wr5A00.pdb
 193 189 0 0 0
SMALL
GASTEIGER

@<TRIPOS>ATOM
      1  N         23.3820   48.8900   30.7440 N.3    12  MET12      -0.1230
      2  CA        23.3170   48.9780   29.3010 C.3    12  MET12       0.1702
      3  C         21.9180   48.4960   28.9240 C.2    12  MET12       0.2592
      4  O         21.6470   47.3120   29.1030 O.2    12  MET12      -0.2718
      5  CB        24.4320   48.1520   28.6370 C.3    12  MET12       0.0401
      6  CG        25.8130   48.5390   29.1500 C.3    12  MET12       0.0596
      7  SD        27.1260   47.4980   28.4830 S.3    12  MET12      -0.1393
      8  CE        27.2570   48.1760   26.8440 C.3    12  MET12       0.0692
      9  N         21.0670   49.4110   28.4630 N.am   13  ASP13      -0.1960
     10  CA        19.6580   49.0350   28.2740 C.3    13  ASP13       0.1840
     11  C         19.0780   49.6010   26.9880 C.2    13  ASP13       0.2622
     12  O         17.9630   50.1110   26.9660 O.2    13  ASP13      -0.2715
     13  CB        18.8250   49.4880   29.4640 C.3    13  ASP13       0.1450
     14  CG        18.8490   50.9740   29.7000 C.2    13  ASP13       0.3671
     15  OD1       19.5420   51.6730   28.9290 O.co2  13  ASP13      -0.2456
     16  OD2       18.1560   51.3700   30.6540 O.co2  13  ASP13      -0.2456
     17  N         19.8840   49.4890   25.9210 N.am   14  LYS14      -0.1963
     18  CA        19.3960   49.8160   24.5900 C.3    14  LYS14       0.1728
     19  C         18.4200   48.7570   24.0930 C.2    14  LYS14       0.2617
     20  O         17.5900   48.9820   23.1990 O.2    14  LYS14      -0.2715
     21  CB        20.6080   50.0250   23.6680 C.3    14  LYS14       0.0311
     22  CG        21.0540   51.5030   23.8550 C.3    14  LYS14       0.0038
     23  CD        20.2940   52.4290   22.9220 C.3    14  LYS14       0.0206
     24  CE        20.4220   53.9050   23.1780 C.3    14  LYS14       0.1093
     25  NZ        19.4430   54.4520   24.1680 N.3    14  LYS14      -0.1314
     26  N         18.4790   47.5490   24.6530 N.am   15  THR15      -0.1937
     27  CA        17.6800   46.4170   24.2340 C.3    15  THR15       0.2028
     28  C         16.7850   45.8570   25.3530 C.2    15  THR15       0.2642
     29  O         16.7980   46.3590   26.4830 O.2    15  THR15      -0.2714
     30  CB        18.5610   45.2370   23.7230 C.3    15  THR15       0.1808
     31  OG1       19.1590   44.6380   24.8830 O.3    15  THR15      -0.2208
     32  CG2       19.7070   45.6610   22.8350 C.3    15  THR15       0.0379
     33  N         16.0410   44.8090   25.0140 N.am   16  LYS16      -0.1963
     34  CA        15.0930   44.1370   25.8900 C.3    16  LYS16       0.1728
     35  C         15.7350   43.1550   26.8530 C.2    16  LYS16       0.2616
     36  O         15.2290   42.6230   27.8360 O.2    16  LYS16      -0.2715
     37  CB        14.0410   43.3660   25.0770 C.3    16  LYS16       0.0311
     38  CG        12.8560   44.1740   24.5560 C.3    16  LYS16       0.0038
     39  CD        13.2270   45.6300   24.3900 C.3    16  LYS16       0.0206
     40  CE        12.4630   46.5680   25.3140 C.3    16  LYS16       0.1093
     41  NZ        11.6360   47.5390   24.5380 N.3    16  LYS16      -0.1314
     42  N         16.9620   42.7860   26.6020 N.am   17  GLN17      -0.1964
     43  CA        17.9530   42.1200   27.4180 C.3    17  GLN17       0.1718
     44  C         19.0530   42.9960   27.9990 C.2    17  GLN17       0.2458
     45  O         20.2150   42.8270   27.6250 O.2    17  GLN17      -0.2730
     46  CB        18.5850   41.0320   26.5230 C.3    17  GLN17       0.0407
     47  CG        17.5240   40.1700   25.8730 C.3    17  GLN17       0.0908
     48  CD        16.7760   39.2350   26.7900 C.2    17  GLN17       0.2608
     49  OE1       15.8590   38.5540   26.3010 O.2    17  GLN17      -0.2717
     50  NE2       17.1330   39.1360   28.0620 N.am   17  GLN17      -0.0878
     51  N         18.7560   43.9310   28.8910 N.am   18  PRO18      -0.2716
     52  CA        19.8030   44.8130   29.4100 C.3    18  PRO18       0.1536
     53  C         20.8380   44.1030   30.2830 C.2    18  PRO18       0.2598
     54  O         20.6320   43.0640   30.8930 O.2    18  PRO18      -0.2715
     55  CB        19.0200   45.8320   30.2500 C.3    18  PRO18       0.0310
     56  CG        17.7870   45.0960   30.6290 C.3    18  PRO18       0.0237
     57  CD        17.4360   44.2280   29.4540 C.3    18  PRO18       0.0939
     58  N         22.0210   44.6830   30.3300 N.am   19  VAL19      -0.1978
     59  CA        23.1930   44.1190   30.9790 C.3    19  VAL19       0.1596
     60  C         23.8720   45.1590   31.8520 C.2    19  VAL19       0.2287
     61  O         24.0220   46.3320   31.4640 O.2    19  VAL19      -0.2864
     62  CB        24.1590   43.5930   29.8820 C.3    19  VAL19       0.0276
     63  CG1       25.4440   43.0650   30.4960 C.3    19  VAL19       0.0022
     64  CG2       23.4860   42.5320   29.0170 C.3    19  VAL19       0.0022
     65  N         20.3350   48.6460   15.6950 N.3    56  MET56      -0.1245
     66  CA        19.6790   47.7270   16.6060 C.3    56  MET56       0.1570
     67  C         19.2160   46.4420   15.9280 C.2    56  MET56       0.2261
     68  O         18.5020   45.6690   16.5710 O.2    56  MET56      -0.2867
     69  CB        18.5470   48.4720   17.3330 C.3    56  MET56       0.0387
     70  CG        19.0590   49.6120   18.2100 C.3    56  MET56       0.0595
     71  SD        20.0330   48.9630   19.5960 S.3    56  MET56      -0.1393
     72  CE        21.4720   49.9810   19.3790 C.3    56  MET56       0.0692
     73  N         20.1030   42.9950   15.2790 N.3    58  LYS58      -0.1245
     74  CA        21.0760   42.1000   15.9160 C.3    58  LYS58       0.1561
     75  C         21.7130   41.1630   14.8910 C.2    58  LYS58       0.2260
     76  O         22.6860   40.4580   15.2170 O.2    58  LYS58      -0.2867
     77  CB        20.4710   41.3000   17.0620 C.3    58  LYS58       0.0271
     78  CG        19.4360   40.2300   16.8350 C.3    58  LYS58       0.0035
     79  CD        18.9750   39.6060   18.1510 C.3    58  LYS58       0.0206
     80  CE        17.7170   38.7810   17.8930 C.3    58  LYS58       0.1093
     81  NZ        17.3980   37.9210   19.0540 N.3    58  LYS58      -0.1314
     82  N         25.1360   46.9760   17.0120 N.3    66  TYR66      -0.1227
     83  CA        25.2900   46.9500   18.4550 C.3    66  TYR66       0.1736
     84  C         25.4660   45.5270   18.9630 C.2    66  TYR66       0.2595
     85  O         26.3950   45.2670   19.7550 O.2    66  TYR66      -0.2718
     86  CB        24.0800   47.6080   19.1150 C.3    66  TYR66       0.0548
     87  CG        24.1670   47.7780   20.6240 C.ar   66  TYR66      -0.0200
     88  CD1       23.1690   47.2760   21.4360 C.ar   66  TYR66      -0.0009
     89  CD2       25.2050   48.4650   21.2400 C.ar   66  TYR66      -0.0009
     90  CE1       23.2050   47.4290   22.8070 C.ar   66  TYR66       0.0417
     91  CE2       25.2710   48.6300   22.6040 C.ar   66  TYR66       0.0417
     92  CZ        24.2490   48.0980   23.3750 C.ar   66  TYR66       0.1957
     93  OH        24.3260   48.2680   24.7170 O.3    66  TYR66      -0.2866
     94  N         24.5830   44.6410   18.5360 N.am   67  TYR67      -0.1976
     95  CA        24.7110   43.2410   19.0150 C.3    67  TYR67       0.1639
     96  C         26.1000   42.7270   18.6710 C.2    67  TYR67       0.2290
     97  O         26.8050   42.0880   19.4730 O.2    67  TYR67      -0.2864
     98  CB        23.6210   42.3890   18.3800 C.3    67  TYR67       0.0560
     99  CG        23.6880   40.9360   18.7980 C.ar   67  TYR67      -0.0198
    100  CD1       24.4420   39.9850   18.1530 C.ar   67  TYR67      -0.0009
    101  CD2       22.9490   40.4950   19.8900 C.ar   67  TYR67      -0.0009
    102  CE1       24.4940   38.6840   18.5500 C.ar   67  TYR67       0.0417
    103  CE2       22.9710   39.2000   20.3240 C.ar   67  TYR67       0.0417
    104  CZ        23.7590   38.3000   19.6380 C.ar   67  TYR67       0.1957
    105  OH        23.7770   36.9770   20.0580 O.3    67  TYR67      -0.2866
    106  N         28.9670   43.7750   20.7890 N.3    70  MET70      -0.1230
    107  CA        28.9840   43.2310   22.1400 C.3    70  MET70       0.1702
    108  C         29.2470   41.7330   22.2020 C.2    70  MET70       0.2592
    109  O         29.6790   41.2140   23.2500 O.2    70  MET70      -0.2718
    110  CB        27.6750   43.5480   22.9120 C.3    70  MET70       0.0401
    111  CG        27.3380   45.0280   22.9290 C.3    70  MET70       0.0596
    112  SD        28.5870   46.0300   23.7380 S.3    70  MET70      -0.1393
    113  CE        29.0380   47.1840   22.4630 C.3    70  MET70       0.0692
    114  N         29.0090   40.9880   21.1290 N.am   71  HIS71      -0.1976
    115  CA        29.0310   39.5160   21.1790 C.3    71  HIS71       0.1656
    116  C         30.0290   38.8000   20.2510 C.2    71  HIS71       0.2291
    117  O         30.3030   37.6360   20.5050 O.2    71  HIS71      -0.2864
    118  CB        27.6200   38.9600   20.8370 C.3    71  HIS71       0.0771
    119  CG        26.5580   39.3820   21.7930 C.ar   71  HIS71       0.0820
    120  ND1       25.8880   40.6140   21.7070 N.ar   71  HIS71      -0.2267
    121  CD2       26.0100   38.7930   22.8580 C.ar   71  HIS71       0.1154
    122  CE1       25.0290   40.6800   22.6950 C.ar   71  HIS71       0.1986
    123  NE2       25.0490   39.5730   23.4570 N.ar   71  HIS71      -0.2212
    124  N         32.6330   42.1760   24.3490 N.3    80  CYS80      -0.1221
    125  CA        32.3810   41.6270   25.6650 C.3    80  CYS80       0.1808
    126  C         32.5290   40.1140   25.6430 C.2    80  CYS80       0.2601
    127  O         33.3080   39.5700   26.4230 O.2    80  CYS80      -0.2717
    128  CB        30.9670   41.9450   26.1320 C.3    80  CYS80       0.0970
    129  SG        30.2920   43.6100   25.9810 S.3    80  CYS80      -0.0800
    130  N         31.7750   39.4670   24.7340 N.am   81  VAL81      -0.1979
    131  CA        31.8100   38.0020   24.7120 C.3    81  VAL81       0.1595
    132  C         33.1370   37.4900   24.1850 C.2    81  VAL81       0.2287
    133  O         33.6520   36.5040   24.7210 O.2    81  VAL81      -0.2864
    134  CB        30.6600   37.4180   23.8880 C.3    81  VAL81       0.0276
    135  CG1       30.7240   35.9080   23.8340 C.3    81  VAL81       0.0022
    136  CG2       29.3670   37.9000   24.5200 C.3    81  VAL81       0.0022
    137  N         35.6610   37.6270   26.9280 N.3    84  HIS84      -0.1241
    138  CA        35.2720   36.6590   27.9610 C.3    84  HIS84       0.1621
    139  C         35.5280   35.2470   27.5210 C.2    84  HIS84       0.2264
    140  O         35.8860   34.4220   28.3740 O.2    84  HIS84      -0.2867
    141  CB        33.8070   36.8470   28.3510 C.3    84  HIS84       0.0745
    142  CG        33.5880   38.0550   29.1940 C.ar   84  HIS84       0.0817
    143  ND1       32.3910   38.2020   29.8920 N.ar   84  HIS84      -0.2268
    144  CD2       34.2770   39.1610   29.5040 C.ar   84  HIS84       0.1154
    145  CE1       32.4210   39.3110   30.5290 C.ar   84  HIS84       0.1986
    146  NE2       33.5730   39.9840   30.3540 N.ar   84  HIS84      -0.2212
    147  N         30.6640   33.8290   32.3710 N.3    98  LEU98      -0.1231
    148  CA        31.1570   34.9510   31.5770 C.3    98  LEU98       0.1693
    149  C         30.6590   34.9600   30.1420 C.2    98  LEU98       0.2593
    150  O         30.7370   36.0010   29.4760 O.2    98  LEU98      -0.2718
    151  CB        32.6870   34.9820   31.5620 C.3    98  LEU98       0.0284
    152  CG        33.3850   35.0810   32.9420 C.3    98  LEU98       0.0019
    153  CD1       34.8990   35.0730   32.7280 C.3    98  LEU98       0.0001
    154  CD2       32.9110   36.3160   33.6920 C.3    98  LEU98       0.0001
    155  N         30.2110   33.8340   29.6200 N.am   99  THR99      -0.1939
    156  CA        29.8430   33.7860   28.2050 C.3    99  THR99       0.2028
    157  C         28.4740   33.1850   27.9720 C.2    99  THR99       0.2643
    158  O         28.0060   33.1580   26.8470 O.2    99  THR99      -0.2714
    159  CB        30.8310   33.0040   27.2980 C.3    99  THR99       0.1808
    160  OG1       30.7650   31.5870   27.4970 O.3    99  THR99      -0.2208
    161  CG2       32.2540   33.4380   27.5560 C.3    99  THR99       0.0379
    162  N         27.8000   32.7000   29.0210 N.am  100  GLY100     -0.1939
    163  CA        26.5360   32.0660   28.8090 C.3   100  GLY100      0.2014
    164  C         25.4720   33.0190   28.3040 C.2   100  GLY100      0.2639
    165  O         25.4390   34.1930   28.6600 O.2   100  GLY100     -0.2714
    166  N         24.5940   32.4800   27.4520 N.am  101  CYS101     -0.1967
    167  CA        23.5500   33.2810   26.8640 C.3   101  CYS101      0.1712
    168  C         22.3830   33.5100   27.8040 C.2   101  CYS101      0.2296
    169  O         21.6370   34.4750   27.6110 O.2   101  CYS101     -0.2864
    170  CB        23.0720   32.6180   25.5840 C.3   101  CYS101      0.0983
    171  SG        24.3070   32.3210   24.3390 S.3   101  CYS101     -0.0798
    172  N         23.9320   33.6780   33.1130 N.3   104  SER104     -0.1217
    173  CA        25.2920   34.2240   33.2210 C.3   104  SER104      0.1889
    174  C         25.2880   35.5620   33.9530 C.2   104  SER104      0.2288
    175  O         24.2580   36.1250   34.3140 O.2   104  SER104     -0.2866
    176  CB        25.9600   34.3840   31.8630 C.3   104  SER104      0.2089
    177  OG        25.4020   35.3300   31.0120 O.3   104  SER104     -0.2183
    178  N         26.1300   38.3060   32.6240 N.3   106  CYS106     -0.1221
    179  CA        25.5130   39.3010   31.7490 C.3   106  CYS106      0.1808
    180  C         23.9960   39.1960   31.6290 C.2   106  CYS106      0.2601
    181  O         23.2580   40.1450   31.7710 O.2   106  CYS106     -0.2717
    182  CB        26.1000   39.1790   30.3380 C.3   106  CYS106      0.0970
    183  SG        27.8740   39.5100   30.3110 S.3   106  CYS106     -0.0800
    184  N         23.4060   38.0700   31.2940 N.am  107  HIS107     -0.1975
    185  CA        22.0380   37.7190   31.0980 C.3   107  HIS107      0.1656
    186  C         21.5950   36.6690   32.1140 C.2   107  HIS107      0.2291
    187  O         21.9200   35.5000   32.0060 O.2   107  HIS107     -0.2864
    188  CB        21.7830   37.1810   29.7010 C.3   107  HIS107      0.0771
    189  CG        22.1700   38.0340   28.5460 C.ar  107  HIS107      0.0820
    190  ND1       21.6570   39.3290   28.3470 N.ar  107  HIS107     -0.2267
    191  CD2       22.9910   37.8630   27.5040 C.ar  107  HIS107      0.1154
    192  CE1       22.1850   39.8060   27.2660 C.ar  107  HIS107      0.1986
    193  NE2       23.0360   38.9630   26.6710 N.ar  107  HIS107     -0.2212
@<TRIPOS>BOND
     1    75    76    2
     2    75    74    1
     3    73    74    1
     4    65    66    1
     5    74    77    1
     6    67    68    2
     7    67    66    1
     8    66    69    1
     9    78    77    1
    10    78    79    1
    11    82    83    1
    12    69    70    1
    13    80    79    1
    14    80    81    1
    15   100   102   ar
    16   100    99   ar
    17    70    71    1
    18    98    99    1
    19    98    95    1
    20    83    84    1
    21    83    86    1
    22    94    84   am
    23    94    95    1
    24   102   104   ar
    25    96    95    1
    26    96    97    2
    27    99   101   ar
    28    84    85    2
    29    86    87    1
    30    72    71    1
    31   104   105    1
    32   104   103   ar
    33   101   103   ar
    34   116   117    2
    35   116   115    1
    36    87    89   ar
    37    87    88   ar
    38   106   107    1
    39   118   115    1
    40   118   119    1
    41   114   115    1
    42   114   108   am
    43    89    91   ar
    44    88    90   ar
    45   120   119   ar
    46   120   122   ar
    47   119   121   ar
    48   107   108    1
    49   107   110    1
    50   108   109    2
    51   113   112    1
    52    91    92   ar
    53   122   123   ar
    54    90    92   ar
    55    32    30    1
    56   121   123   ar
    57   110   111    1
    58    23    24    1
    59    23    22    1
    60   111   112    1
    61    24    25    1
    62    20    19    2
    63    92    93    1
    64    21    22    1
    65    21    18    1
    66    30    27    1
    67    30    31    1
    68   135   134    1
    69   134   136    1
    70   134   131    1
    71    19    18    1
    72    19    26   am
    73   132   131    1
    74   132   133    2
    75    27    26    1
    76    27    28    1
    77   171   170    1
    78   124   125    1
    79    39    38    1
    80    39    40    1
    81    41    40    1
    82    38    37    1
    83    18    17    1
    84   131   130    1
    85   130   126   am
    86    33    28   am
    87    33    34    1
    88    37    34    1
    89    28    29    2
    90   170   167    1
    91   126   125    1
    92   126   127    2
    93   125   128    1
    94    47    46    1
    95    47    48    1
    96    34    35    1
    97    17    11   am
    98   129   128    1
    99    49    48    2
   100    46    43    1
   101    42    35   am
   102    42    43    1
   103   193   192   ar
   104   193   191   ar
   105    48    50   am
   106     8     7    1
   107   158   157    2
   108    35    36    2
   109   167   166    1
   110   167   168    1
   111   137   138    1
   112    12    11    2
   113    11    10    1
   114   192   190   ar
   115   159   160    1
   116   159   161    1
   117   159   156    1
   118    43    44    1
   119   166   164   am
   120   191   189   ar
   121   139   138    1
   122   139   140    2
   123   169   168    2
   124    45    44    2
   125   138   141    1
   126   157   156    1
   127   157   162   am
   128    44    51   am
   129   156   155    1
   130    10     9    1
   131    10    13    1
   132   164   165    2
   133   164   163    1
   134   190   189   ar
   135   141   142    1
   136     9     3   am
   137     7     6    1
   138   189   188    1
   139     5     6    1
   140     5     2    1
   141   163   162    1
   142    51    52    1
   143    51    57    1
   144     3     4    2
   145     3     2    1
   146    15    14   ar
   147    64    62    1
   148   142   144   ar
   149   142   143   ar
   150     2     1    1
   151    52    55    1
   152    52    53    1
   153    57    56    1
   154    13    14    1
   155   150   149    2
   156   144   146   ar
   157   155   149   am
   158    14    16   ar
   159   188   185    1
   160    62    63    1
   161    62    59    1
   162   143   145   ar
   163   149   148    1
   164    55    56    1
   165    53    58   am
   166    53    54    2
   167   183   182    1
   168    58    59    1
   169   182   179    1
   170   146   145   ar
   171    59    60    1
   172   177   176    1
   173   185   184    1
   174   185   186    1
   175   184   180   am
   176    61    60    2
   177   151   148    1
   178   151   152    1
   179   148   147    1
   180   180   179    1
   181   180   181    2
   182   179   178    1
   183   176   173    1
   184   187   186    2
   185   153   152    1
   186   152   154    1
   187   172   173    1
   188   173   174    1
   189   174   175    2
