@<TRIPOS>MOLECULE
tmp/1wr5A01.pdb
 189 186 0 0 0
SMALL
GASTEIGER

@<TRIPOS>ATOM
      1  N         23.3820   48.8900   30.7440 N.3    12  MET12      -0.1245
      2  CA        23.3170   48.9780   29.3010 C.3    12  MET12       0.1570
      3  C         21.9180   48.4960   28.9240 C.2    12  MET12       0.2261
      4  O         21.6470   47.3120   29.1030 O.2    12  MET12      -0.2867
      5  CB        24.4320   48.1520   28.6370 C.3    12  MET12       0.0387
      6  CG        25.8130   48.5390   29.1500 C.3    12  MET12       0.0595
      7  SD        27.1260   47.4980   28.4830 S.3    12  MET12      -0.1393
      8  CE        27.2570   48.1760   26.8440 C.3    12  MET12       0.0692
      9  N         38.1640   49.6620   25.2890 N.3    34  CYS34      -0.1221
     10  CA        36.7300   49.7360   25.2000 C.3    34  CYS34       0.1808
     11  C         36.2930   51.1110   24.6930 C.2    34  CYS34       0.2601
     12  O         35.5330   51.1480   23.7170 O.2    34  CYS34      -0.2717
     13  CB        36.0950   49.4240   26.5580 C.3    34  CYS34       0.0970
     14  SG        36.4920   47.7760   27.1730 S.3    34  CYS34      -0.0800
     15  N         36.7320   52.1450   25.3850 N.am   35  HIS35      -0.1961
     16  CA        36.5700   53.5340   24.9490 C.3    35  HIS35       0.1787
     17  C         37.6630   53.8290   23.9310 C.2    35  HIS35       0.2620
     18  O         38.5960   54.5530   24.1790 O.2    35  HIS35      -0.2715
     19  CB        36.6340   54.4600   26.1570 C.3    35  HIS35       0.0785
     20  CG        35.6840   54.0550   27.2230 C.ar   35  HIS35       0.0821
     21  ND1       34.3060   54.1320   27.0500 N.ar   35  HIS35      -0.2267
     22  CD2       35.8150   53.5270   28.4480 C.ar   35  HIS35       0.1154
     23  CE1       33.7540   53.6860   28.1370 C.ar   35  HIS35       0.1986
     24  NE2       34.6010   53.2840   29.1010 N.ar   35  HIS35      -0.2212
     25  N         37.4750   53.1680   22.7940 N.am   36  HIS36      -0.1960
     26  CA        38.5340   52.9820   21.8260 C.3    36  HIS36       0.1772
     27  C         38.7300   54.2050   20.9450 C.2    36  HIS36       0.2462
     28  O         37.8930   55.1050   20.8490 O.2    36  HIS36      -0.2730
     29  CB        38.2120   51.7310   21.0020 C.3    36  HIS36       0.0785
     30  CG        36.9880   51.8430   20.1780 C.ar   36  HIS36       0.0821
     31  ND1       36.9390   52.5860   19.0110 N.ar   36  HIS36      -0.2267
     32  CD2       35.7550   51.3120   20.3230 C.ar   36  HIS36       0.1154
     33  CE1       35.7490   52.5190   18.4830 C.ar   36  HIS36       0.1986
     34  NE2       35.0050   51.7610   19.2540 N.ar   36  HIS36      -0.2212
     35  N         39.8840   54.2790   20.3000 N.am   37  PRO37      -0.2716
     36  CA        40.1210   55.3950   19.3910 C.3    37  PRO37       0.1536
     37  C         39.0850   55.4030   18.2660 C.2    37  PRO37       0.2598
     38  O         38.7140   54.3500   17.7340 O.2    37  PRO37      -0.2715
     39  CB        41.5190   55.1320   18.8190 C.3    37  PRO37       0.0310
     40  CG        42.1700   54.3020   19.8860 C.3    37  PRO37       0.0237
     41  CD        41.0590   53.4030   20.3670 C.3    37  PRO37       0.0939
     42  N         38.6530   56.6140   17.9570 N.am   38  VAL38      -0.1978
     43  CA        37.8400   56.9720   16.7900 C.3    38  VAL38       0.1596
     44  C         38.5060   58.1990   16.1940 C.2    38  VAL38       0.2287
     45  O         38.6770   59.1910   16.9130 O.2    38  VAL38      -0.2864
     46  CB        36.3840   57.1790   17.2130 C.3    38  VAL38       0.0276
     47  CG1       35.5140   57.5130   15.9880 C.3    38  VAL38       0.0022
     48  CG2       35.8010   55.9530   17.8790 C.3    38  VAL38       0.0022
     49  N         37.3110   57.5350   22.5670 N.3    43  ASP43      -0.1239
     50  CA        35.9640   58.1160   22.6180 C.3    43  ASP43       0.1674
     51  C         35.1920   57.5060   23.7840 C.2    43  ASP43       0.2266
     52  O         35.0750   56.2670   23.7610 O.2    43  ASP43      -0.2867
     53  CB        35.1980   57.8590   21.3320 C.3    43  ASP43       0.1410
     54  CG        34.0260   58.8120   21.2040 C.2    43  ASP43       0.3668
     55  OD1       33.0580   58.6360   21.9250 O.co2  43  ASP43      -0.2456
     56  OD2       34.1300   59.7440   20.3780 O.co2  43  ASP43      -0.2456
     57  N         32.0460   58.2350   24.6860 N.3    45  GLN45      -0.1231
     58  CA        30.5840   58.3260   24.6150 C.3    45  GLN45       0.1698
     59  C         29.9540   56.9490   24.7880 C.2    45  GLN45       0.2592
     60  O         30.5860   55.9000   24.6790 O.2    45  GLN45      -0.2718
     61  CB        30.0710   58.9480   23.3180 C.3    45  GLN45       0.0381
     62  CG        30.5360   60.3700   23.0670 C.3    45  GLN45       0.0905
     63  CD        30.2780   60.7750   21.6290 C.2    45  GLN45       0.2608
     64  OE1       31.1290   60.5150   20.7750 O.2    45  GLN45      -0.2717
     65  NE2       29.1230   61.3740   21.3920 N.am   45  GLN45      -0.0878
     66  N         28.6660   56.9440   25.0710 N.am   46  LYS46      -0.1966
     67  CA        27.9280   55.6840   25.1300 C.3    46  LYS46       0.1728
     68  C         28.0690   54.9110   23.8200 C.2    46  LYS46       0.2616
     69  O         28.0740   55.5170   22.7510 O.2    46  LYS46      -0.2715
     70  CB        26.4270   55.8880   25.4440 C.3    46  LYS46       0.0311
     71  CG        26.2350   56.5220   26.8000 C.3    46  LYS46       0.0038
     72  CD        24.8540   57.0600   27.0560 C.3    46  LYS46       0.0206
     73  CE        24.6020   57.4650   28.5080 C.3    46  LYS46       0.1093
     74  NZ        25.4000   58.7110   28.7620 N.3    46  LYS46      -0.1314
     75  N         28.2050   53.6090   23.9470 N.am   47  CYS47      -0.1968
     76  CA        28.5960   52.7910   22.7950 C.3    47  CYS47       0.1712
     77  C         27.6330   52.9000   21.6320 C.2    47  CYS47       0.2296
     78  O         28.0060   52.8330   20.4830 O.2    47  CYS47      -0.2864
     79  CB        28.7930   51.3230   23.1860 C.3    47  CYS47       0.0983
     80  SG        29.7860   50.9620   24.6330 S.3    47  CYS47      -0.0798
     81  N         25.5360   57.3680   15.2140 N.3    51  GLY51      -0.1210
     82  CA        26.7590   57.3710   14.4270 C.3    51  GLY51       0.1956
     83  C         27.8350   56.4220   14.9200 C.2    51  GLY51       0.2612
     84  O         28.8850   56.2390   14.2750 O.2    51  GLY51      -0.2717
     85  N         27.5960   55.8090   16.0730 N.am   52  CYS52      -0.1956
     86  CA        28.4730   54.7760   16.6450 C.3    52  CYS52       0.1843
     87  C         27.8350   53.4070   16.5040 C.2    52  CYS52       0.2625
     88  O         27.4360   53.0250   15.3960 O.2    52  CYS52      -0.2714
     89  CB        28.7890   55.1170   18.1050 C.3    52  CYS52       0.0997
     90  SG        29.5030   56.7480   18.2990 S.3    52  CYS52      -0.0797
     91  N         27.6570   52.6320   17.5580 N.am   53  HIS53      -0.1973
     92  CA        27.0410   51.2980   17.4280 C.3    53  HIS53       0.1656
     93  C         25.5250   51.4100   17.5750 C.2    53  HIS53       0.2291
     94  O         24.9230   50.9410   18.5250 O.2    53  HIS53      -0.2864
     95  CB        27.6430   50.3200   18.4310 C.3    53  HIS53       0.0771
     96  CG        29.1200   50.3650   18.2760 C.ar   53  HIS53       0.0820
     97  ND1       29.6970   49.7540   17.1830 N.ar   53  HIS53      -0.2267
     98  CD2       30.1150   50.8900   19.0100 C.ar   53  HIS53       0.1154
     99  CE1       30.9910   49.9400   17.2580 C.ar   53  HIS53       0.1986
    100  NE2       31.2560   50.6090   18.3420 N.ar   53  HIS53      -0.2212
    101  N         26.3070   42.7410   10.9920 N.3    61  LYS61      -0.1245
    102  CA        27.7050   42.4360   11.2740 C.3    61  LYS61       0.1561
    103  C         28.6410   43.5800   10.9180 C.2    61  LYS61       0.2260
    104  O         29.8700   43.4590   11.0140 O.2    61  LYS61      -0.2867
    105  CB        28.1760   41.2080   10.4940 C.3    61  LYS61       0.0271
    106  CG        27.3080   39.9970   10.8010 C.3    61  LYS61       0.0035
    107  CD        27.3480   39.7430   12.3110 C.3    61  LYS61       0.0206
    108  CE        26.7360   38.3710   12.5800 C.3    61  LYS61       0.1093
    109  NZ        25.3680   38.5300   13.1760 N.3    61  LYS61      -0.1314
    110  N         30.3320   47.3670   11.5820 N.3    63  ALA63      -0.1245
    111  CA        30.7840   47.8860   12.8760 C.3    63  ALA63       0.1562
    112  C         29.6540   48.5690   13.6300 C.2    63  ALA63       0.2260
    113  O         29.6650   48.4960   14.8620 O.2    63  ALA63      -0.2867
    114  CB        31.9610   48.7970   12.6500 C.3    63  ALA63       0.0290
    115  N         26.4730   42.9760   17.4190 N.3    68  HIS68      -0.1226
    116  CA        27.7360   42.4650   16.8940 C.3    68  HIS68       0.1752
    117  C         28.9100   42.9290   17.7420 C.2    68  HIS68       0.2596
    118  O         29.8240   42.1740   18.0580 O.2    68  HIS68      -0.2718
    119  CB        27.8680   42.9020   15.4480 C.3    68  HIS68       0.0759
    120  CG        29.2430   42.9720   14.8860 C.ar   68  HIS68       0.0818
    121  ND1       29.9540   41.8330   14.5700 N.ar   68  HIS68      -0.2268
    122  CD2       30.0470   44.0040   14.5850 C.ar   68  HIS68       0.1154
    123  CE1       31.1400   42.1760   14.0950 C.ar   68  HIS68       0.1986
    124  NE2       31.2230   43.4950   14.0920 N.ar   68  HIS68      -0.2212
    125  N         28.8970   44.2000   18.0980 N.am   69  ALA69      -0.1966
    126  CA        30.0040   44.8320   18.8240 C.3    69  ALA69       0.1728
    127  C         30.0740   44.3200   20.2570 C.2    69  ALA69       0.2616
    128  O         31.1410   44.4360   20.8380 O.2    69  ALA69      -0.2715
    129  CB        29.8420   46.3400   18.7510 C.3    69  ALA69       0.0334
    130  N         28.9670   43.7750   20.7890 N.am   70  MET70      -0.1977
    131  CA        28.9840   43.2310   22.1400 C.3    70  MET70       0.1605
    132  C         29.2470   41.7330   22.2020 C.2    70  MET70       0.2287
    133  O         29.6790   41.2140   23.2500 O.2    70  MET70      -0.2864
    134  CB        27.6750   43.5480   22.9120 C.3    70  MET70       0.0413
    135  CG        27.3380   45.0280   22.9290 C.3    70  MET70       0.0598
    136  SD        28.5870   46.0300   23.7380 S.3    70  MET70      -0.1393
    137  CE        29.0380   47.1840   22.4630 C.3    70  MET70       0.0692
    138  N         36.5520   38.1830   16.3210 N.3    74  GLY74      -0.1210
    139  CA        37.1800   38.6920   15.1240 C.3    74  GLY74       0.1956
    140  C         36.9810   40.1540   14.8440 C.2    74  GLY74       0.2613
    141  O         37.0580   40.5930   13.6920 O.2    74  GLY74      -0.2717
    142  N         36.7010   40.8810   15.9170 N.am   75  THR75      -0.1938
    143  CA        36.4110   42.3210   15.8280 C.3    75  THR75       0.2028
    144  C         37.7150   43.0640   16.0960 C.2    75  THR75       0.2642
    145  O         38.6530   42.5830   16.7320 O.2    75  THR75      -0.2714
    146  CB        35.2920   42.6810   16.8220 C.3    75  THR75       0.1808
    147  OG1       35.5390   42.0350   18.0830 O.3    75  THR75      -0.2208
    148  CG2       33.9310   42.1740   16.3520 C.3    75  THR75       0.0379
    149  N         37.7780   44.2860   15.5830 N.am   76  LYS76      -0.1963
    150  CA        38.9500   45.1110   15.6800 C.3    76  LYS76       0.1728
    151  C         39.3120   45.4700   17.1060 C.2    76  LYS76       0.2616
    152  O         40.4970   45.5780   17.4190 O.2    76  LYS76      -0.2715
    153  CB        38.7000   46.3610   14.8400 C.3    76  LYS76       0.0311
    154  CG        39.9530   47.1320   14.5280 C.3    76  LYS76       0.0038
    155  CD        39.7060   48.3500   13.6660 C.3    76  LYS76       0.0206
    156  CE        39.7740   48.1120   12.1670 C.3    76  LYS76       0.1093
    157  NZ        39.8050   49.3640   11.3510 N.3    76  LYS76      -0.1314
    158  N         38.2710   45.6580   17.9070 N.am   77  PHE77      -0.1960
    159  CA        38.4100   45.7640   19.3570 C.3    77  PHE77       0.1771
    160  C         37.7310   44.5350   19.9520 C.2    77  PHE77       0.2619
    161  O         36.7380   44.0190   19.3750 O.2    77  PHE77      -0.2715
    162  CB        37.8320   47.0550   19.9120 C.3    77  PHE77       0.0574
    163  CG        38.4730   48.2490   19.2080 C.ar   77  PHE77      -0.0200
    164  CD1       39.7360   48.6850   19.5980 C.ar   77  PHE77      -0.0042
    165  CD2       37.8020   48.9010   18.1910 C.ar   77  PHE77      -0.0042
    166  CE1       40.3460   49.7320   18.9380 C.ar   77  PHE77      -0.0003
    167  CE2       38.4280   49.9430   17.4950 C.ar   77  PHE77      -0.0003
    168  CZ        39.6760   50.3450   17.8910 C.ar   77  PHE77      -0.0000
    169  N         38.2240   44.0130   21.0700 N.am   78  LYS78      -0.1963
    170  CA        37.5150   42.8520   21.6540 C.3    78  LYS78       0.1728
    171  C         36.0710   43.1990   22.0100 C.2    78  LYS78       0.2617
    172  O         35.7790   44.2720   22.5470 O.2    78  LYS78      -0.2715
    173  CB        38.1620   42.3580   22.9510 C.3    78  LYS78       0.0311
    174  CG        39.6320   41.9980   22.7960 C.3    78  LYS78       0.0038
    175  CD        39.8400   40.7630   21.9800 C.3    78  LYS78       0.0206
    176  CE        41.3290   40.4560   21.9110 C.3    78  LYS78       0.1093
    177  NZ        41.5970   39.1700   21.1740 N.3    78  LYS78      -0.1314
    178  N         35.1730   42.2780   21.7430 N.am   79  SER79      -0.1936
    179  CA        33.8160   42.4280   22.2520 C.3    79  SER79       0.2055
    180  C         33.7420   41.8560   23.6610 C.2    79  SER79       0.2643
    181  O         34.6360   41.1450   24.1300 O.2    79  SER79      -0.2714
    182  CB        32.7830   41.7530   21.3760 C.3    79  SER79       0.2130
    183  OG        32.9300   40.3370   21.4670 O.3    79  SER79      -0.2179
    184  N         32.6330   42.1760   24.3490 N.am   80  CYS80      -0.1967
    185  CA        32.3810   41.6270   25.6650 C.3    80  CYS80       0.1712
    186  C         32.5290   40.1140   25.6430 C.2    80  CYS80       0.2296
    187  O         33.3080   39.5700   26.4230 O.2    80  CYS80      -0.2864
    188  CB        30.9670   41.9450   26.1320 C.3    80  CYS80       0.0983
    189  SG        30.2920   43.6100   25.9810 S.3    80  CYS80      -0.0798
@<TRIPOS>BOND
     1   105   106    1
     2   105   102    1
     3   106   107    1
     4   103   104    2
     5   103   102    1
     6   101   102    1
     7   157   156    1
     8   110   111    1
     9   156   155    1
    10   107   108    1
    11   108   109    1
    12   114   111    1
    13   111   112    1
    14   112   113    2
    15   155   154    1
    16   141   140    2
    17   124   123   ar
    18   124   122   ar
    19   123   121   ar
    20    84    83    2
    21    82    83    1
    22    82    81    1
    23   154   153    1
    24   121   120   ar
    25   122   120   ar
    26   153   150    1
    27   140   139    1
    28   140   142   am
    29   120   119    1
    30    83    85   am
    31   139   138    1
    32    88    87    2
    33   119   116    1
    34   149   150    1
    35   149   144   am
    36   150   151    1
    37   143   142    1
    38   143   144    1
    39   143   146    1
    40    47    46    1
    41    85    86    1
    42   144   145    2
    43    44    43    1
    44    44    45    2
    45   148   146    1
    46    87    86    1
    47    87    91   am
    48    86    89    1
    49    43    46    1
    50    43    42    1
    51   146   147    1
    52   116   115    1
    53   116   117    1
    54   151   152    2
    55   151   158   am
    56    97    99   ar
    57    97    96   ar
    58    46    48    1
    59    99   100   ar
    60    92    91    1
    61    92    93    1
    62    92    95    1
    63   167   168   ar
    64   167   165   ar
    65    93    94    2
    66    38    37    2
    67   117   118    2
    68   117   125   am
    69   168   166   ar
    70   158   159    1
    71    42    37   am
    72   125   126    1
    73    89    90    1
    74   165   163   ar
    75    37    36    1
    76    96    95    1
    77    96    98   ar
    78   100    98   ar
    79    33    31   ar
    80    33    34   ar
    81   129   126    1
    82    39    36    1
    83    39    40    1
    84   126   127    1
    85   166   164   ar
    86    31    30   ar
    87   163   164   ar
    88   163   162    1
    89    34    32   ar
    90   159   162    1
    91   159   160    1
    92   161   160    2
    93    36    35    1
    94    40    41    1
    95   160   169   am
    96    30    32   ar
    97    30    29    1
    98   127   130   am
    99   127   128    2
   100    35    41    1
   101    35    27   am
   102    56    54   ar
   103    78    77    2
   104    64    63    2
   105   130   131    1
   106    28    27    2
   107    27    26    1
   108    29    26    1
   109   169   170    1
   110   177   176    1
   111    54    53    1
   112    54    55   ar
   113    53    50    1
   114   182   183    1
   115   182   179    1
   116    65    63   am
   117    63    62    1
   118    77    76    1
   119   170   171    1
   120   170   173    1
   121   178   171   am
   122   178   179    1
   123    26    25    1
   124   176   175    1
   125   175   174    1
   126   171   172    2
   127   131   132    1
   128   131   134    1
   129   132   133    2
   130   179   180    1
   131   137   136    1
   132    49    50    1
   133    50    51    1
   134    69    68    2
   135    25    17   am
   136    76    79    1
   137    76    75    1
   138   174   173    1
   139   134   135    1
   140   135   136    1
   141    62    61    1
   142    79    80    1
   143    61    58    1
   144   180   181    2
   145   180   184   am
   146    12    11    2
   147    52    51    2
   148    68    75   am
   149    68    67    1
   150    17    18    2
   151    17    16    1
   152   184   185    1
   153    58    57    1
   154    58    59    1
   155    60    59    2
   156    11    10    1
   157    11    15   am
   158    59    66   am
   159    16    15    1
   160    16    19    1
   161    66    67    1
   162    67    70    1
   163    10     9    1
   164    10    13    1
   165    70    71    1
   166   186   185    1
   167   186   187    2
   168   185   188    1
   169   189   188    1
   170    19    20    1
   171    13    14    1
   172    71    72    1
   173     8     7    1
   174    21    20   ar
   175    21    23   ar
   176    72    73    1
   177    20    22   ar
   178    23    24   ar
   179    22    24   ar
   180     7     6    1
   181    73    74    1
   182     5     6    1
   183     5     2    1
   184     3     4    2
   185     3     2    1
   186     2     1    1
