@<TRIPOS>MOLECULE
tmp/1wr5A02.pdb
 189 186 0 0 0
SMALL
GASTEIGER

@<TRIPOS>ATOM
      1  N         39.4430   61.4020   32.0090 N.3     3  PRO3       -0.2102
      2  CA        38.1760   60.8250   32.4670 C.3     3  PRO3        0.1504
      3  C         38.4390   59.7640   33.5410 C.2     3  PRO3        0.2576
      4  O         39.4740   59.1020   33.5450 O.2     3  PRO3       -0.2718
      5  CB        37.5670   60.2020   31.2160 C.3     3  PRO3        0.0282
      6  CG        38.4070   60.5830   30.0580 C.3     3  PRO3        0.0208
      7  CD        39.6840   61.1630   30.5770 C.3     3  PRO3        0.0893
      8  N         37.4660   59.6510   34.4350 N.am    4  LYS4       -0.1966
      9  CA        37.5280   58.6700   35.5090 C.3     4  LYS4        0.1728
     10  C         36.4210   57.6300   35.3370 C.2     4  LYS4        0.2616
     11  O         35.3390   57.8770   34.8270 O.2     4  LYS4       -0.2715
     12  CB        37.4490   59.3540   36.8670 C.3     4  LYS4        0.0311
     13  CG        38.6680   60.1560   37.2690 C.3     4  LYS4        0.0038
     14  CD        38.4550   60.9270   38.5650 C.3     4  LYS4        0.0206
     15  CE        37.8010   62.2790   38.3250 C.3     4  LYS4        0.1093
     16  NZ        37.4090   63.0260   39.5630 N.3     4  LYS4       -0.1314
     17  N         36.7220   56.4190   35.7920 N.am    5  ALA5       -0.1964
     18  CA        35.7860   55.3020   35.7120 C.3     5  ALA5        0.1713
     19  C         34.5720   55.6050   36.5990 C.2     5  ALA5        0.2458
     20  O         34.7390   56.0580   37.7450 O.2     5  ALA5       -0.2730
     21  CB        36.4240   53.9890   36.0920 C.3     5  ALA5        0.0333
     22  N         33.3770   55.3980   36.0740 N.am    6  PRO6       -0.2727
     23  CA        32.1790   55.5610   36.9020 C.3     6  PRO6        0.1402
     24  C         32.0010   54.4390   37.9190 C.2     6  PRO6        0.2269
     25  O         32.6790   53.4200   37.9460 O.2     6  PRO6       -0.2865
     26  CB        31.0420   55.5470   35.8880 C.3     6  PRO6        0.0296
     27  CG        31.5480   54.7920   34.7010 C.3     6  PRO6        0.0237
     28  CD        33.0290   55.0140   34.6800 C.3     6  PRO6        0.0939
     29  N         26.2990   50.2680   36.1900 N.3    10  LEU10      -0.1231
     30  CA        25.8410   51.0010   35.0010 C.3    10  LEU10       0.1693
     31  C         25.0150   50.0630   34.1330 C.2    10  LEU10       0.2592
     32  O         25.4520   49.0120   33.6630 O.2    10  LEU10      -0.2718
     33  CB        27.0890   51.4930   34.3130 C.3    10  LEU10       0.0284
     34  CG        27.1930   52.5620   33.2710 C.3    10  LEU10       0.0019
     35  CD1       28.6690   52.8900   33.0440 C.3    10  LEU10       0.0001
     36  CD2       26.5630   52.1310   31.9510 C.3    10  LEU10       0.0001
     37  N         23.7500   50.3580   33.8390 N.am   11  LYS11      -0.1966
     38  CA        22.9180   49.5160   33.0300 C.3    11  LYS11       0.1728
     39  C         22.9980   49.8760   31.5500 C.2    11  LYS11       0.2616
     40  O         22.7340   50.9930   31.1050 O.2    11  LYS11      -0.2715
     41  CB        21.4550   49.6360   33.5060 C.3    11  LYS11       0.0311
     42  CG        20.5790   48.6310   32.7300 C.3    11  LYS11       0.0038
     43  CD        19.1710   48.7580   33.3070 C.3    11  LYS11       0.0206
     44  CE        19.0970   48.1160   34.6840 C.3    11  LYS11       0.1093
     45  NZ        17.6710   48.1130   35.1460 N.3    11  LYS11      -0.1314
     46  N         23.3820   48.8900   30.7440 N.am   12  MET12      -0.1977
     47  CA        23.3170   48.9780   29.3010 C.3    12  MET12       0.1605
     48  C         21.9180   48.4960   28.9240 C.2    12  MET12       0.2287
     49  O         21.6470   47.3120   29.1030 O.2    12  MET12      -0.2864
     50  CB        24.4320   48.1520   28.6370 C.3    12  MET12       0.0413
     51  CG        25.8130   48.5390   29.1500 C.3    12  MET12       0.0598
     52  SD        27.1260   47.4980   28.4830 S.3    12  MET12      -0.1393
     53  CE        27.2570   48.1760   26.8440 C.3    12  MET12       0.0692
     54  N         27.1450   46.7190   33.6550 N.3    21  PHE21      -0.1241
     55  CA        28.5770   46.8250   33.4760 C.3    21  PHE21       0.1605
     56  C         29.2310   47.4430   34.7170 C.2    21  PHE21       0.2264
     57  O         28.8470   48.5350   35.1320 O.2    21  PHE21      -0.2867
     58  CB        28.9630   47.6730   32.2520 C.3    21  PHE21       0.0534
     59  CG        30.4730   47.6450   32.0470 C.ar   21  PHE21      -0.0203
     60  CD1       31.0450   46.5510   31.4380 C.ar   21  PHE21      -0.0042
     61  CD2       31.2670   48.6980   32.4700 C.ar   21  PHE21      -0.0042
     62  CE1       32.4160   46.5150   31.2760 C.ar   21  PHE21      -0.0003
     63  CE2       32.6400   48.6290   32.3320 C.ar   21  PHE21      -0.0003
     64  CZ        33.2240   47.5200   31.7470 C.ar   21  PHE21      -0.0000
     65  N         32.8370   48.6940   36.2220 N.3    23  HIS23      -0.1241
     66  CA        34.2370   48.9920   35.9470 C.3    23  HIS23       0.1621
     67  C         35.1850   48.2920   36.9210 C.2    23  HIS23       0.2264
     68  O         36.3430   47.9920   36.5810 O.2    23  HIS23      -0.2867
     69  CB        34.4190   50.5170   35.9420 C.3    23  HIS23       0.0745
     70  CG        34.0020   51.1600   34.6700 C.ar   23  HIS23       0.0817
     71  ND1       32.6600   51.4200   34.3860 N.ar   23  HIS23      -0.2268
     72  CD2       34.7110   51.5730   33.5920 C.ar   23  HIS23       0.1154
     73  CE1       32.6280   51.9680   33.1810 C.ar   23  HIS23       0.1986
     74  NE2       33.8430   52.0800   32.6800 N.ar   23  HIS23      -0.2212
     75  N         36.9640   45.2640   35.7340 N.3    26  HIS26      -0.1241
     76  CA        37.6480   45.4090   34.4490 C.3    26  HIS26       0.1621
     77  C         38.8950   46.2580   34.5200 C.2    26  HIS26       0.2264
     78  O         39.3330   46.7570   33.4880 O.2    26  HIS26      -0.2867
     79  CB        36.6400   45.9910   33.4240 C.3    26  HIS26       0.0745
     80  CG        35.5930   44.9890   33.0470 C.ar   26  HIS26       0.0817
     81  ND1       34.3840   44.9180   33.7120 N.ar   26  HIS26      -0.2268
     82  CD2       35.5350   44.0400   32.1130 C.ar   26  HIS26       0.1154
     83  CE1       33.6490   43.9710   33.2300 C.ar   26  HIS26       0.1986
     84  NE2       34.3240   43.4330   32.2580 N.ar   26  HIS26      -0.2212
     85  N         41.9040   45.7430   32.1430 N.3    29  VAL29      -0.1231
     86  CA        41.7010   46.1810   30.7690 C.3    29  VAL29       0.1693
     87  C         41.9090   47.6740   30.6180 C.2    29  VAL29       0.2595
     88  O         41.3090   48.4220   31.4030 O.2    29  VAL29      -0.2718
     89  CB        40.2750   45.8080   30.2890 C.3    29  VAL29       0.0266
     90  CG1       40.1010   46.3030   28.8620 C.3    29  VAL29       0.0020
     91  CG2       40.0740   44.3150   30.3740 C.3    29  VAL29       0.0020
     92  N         42.7200   48.1500   29.6650 N.am   30  LYS30      -0.1920
     93  CA        42.9000   49.5970   29.5770 C.3    30  LYS30       0.1944
     94  C         41.5870   50.2600   29.1450 C.2    30  LYS30       0.2658
     95  O         40.8420   49.6640   28.3760 O.2    30  LYS30      -0.2711
     96  CB        43.9410   50.0290   28.5790 C.2    30  LYS30      -0.0002
     97  CG        44.9600   49.0840   28.0330 C.2    30  LYS30      -0.0270
     98  CD        45.8620   49.6330   26.9530 C.3    30  LYS30       0.0462
     99  CE        45.2890   50.4870   25.8540 C.3    30  LYS30       0.1140
    100  NZ        45.6780   50.1020   24.4760 N.3    30  LYS30      -0.1310
    101  N         41.3970   51.4660   29.6390 N.am   31  CYS31      -0.1965
    102  CA        40.2320   52.2310   29.2570 C.3    31  CYS31       0.1712
    103  C         40.0570   52.2510   27.7300 C.2    31  CYS31       0.2296
    104  O         38.9300   52.1000   27.2790 O.2    31  CYS31      -0.2864
    105  CB        40.2670   53.6920   29.6960 C.3    31  CYS31       0.0983
    106  SG        40.8450   54.0160   31.3770 S.3    31  CYS31      -0.0798
    107  N         38.1640   49.6620   25.2890 N.3    34  CYS34      -0.1221
    108  CA        36.7300   49.7360   25.2000 C.3    34  CYS34       0.1808
    109  C         36.2930   51.1110   24.6930 C.2    34  CYS34       0.2601
    110  O         35.5330   51.1480   23.7170 O.2    34  CYS34      -0.2717
    111  CB        36.0950   49.4240   26.5580 C.3    34  CYS34       0.0970
    112  SG        36.4920   47.7760   27.1730 S.3    34  CYS34      -0.0800
    113  N         36.7320   52.1450   25.3850 N.am   35  HIS35      -0.1975
    114  CA        36.5700   53.5340   24.9490 C.3    35  HIS35       0.1656
    115  C         37.6630   53.8290   23.9310 C.2    35  HIS35       0.2291
    116  O         38.5960   54.5530   24.1790 O.2    35  HIS35      -0.2864
    117  CB        36.6340   54.4600   26.1570 C.3    35  HIS35       0.0771
    118  CG        35.6840   54.0550   27.2230 C.ar   35  HIS35       0.0820
    119  ND1       34.3060   54.1320   27.0500 N.ar   35  HIS35      -0.2267
    120  CD2       35.8150   53.5270   28.4480 C.ar   35  HIS35       0.1154
    121  CE1       33.7540   53.6860   28.1370 C.ar   35  HIS35       0.1986
    122  NE2       34.6010   53.2840   29.1010 N.ar   35  HIS35      -0.2212
    123  N         34.7270   58.3090   24.7190 N.3    44  TYR44      -0.1227
    124  CA        34.0930   57.8370   25.9520 C.3    44  TYR44       0.1736
    125  C         32.5860   57.9950   25.8870 C.2    44  TYR44       0.2595
    126  O         31.9300   57.9000   26.9110 O.2    44  TYR44      -0.2718
    127  CB        34.6900   58.5850   27.1330 C.3    44  TYR44       0.0548
    128  CG        36.1110   58.1890   27.4880 C.ar   44  TYR44      -0.0200
    129  CD1       36.3440   57.2170   28.4450 C.ar   44  TYR44      -0.0009
    130  CD2       37.1970   58.7760   26.8610 C.ar   44  TYR44      -0.0009
    131  CE1       37.6150   56.8320   28.7920 C.ar   44  TYR44       0.0417
    132  CE2       38.4930   58.3940   27.1970 C.ar   44  TYR44       0.0417
    133  CZ        38.6760   57.4270   28.1520 C.ar   44  TYR44       0.1957
    134  OH        39.9530   57.0550   28.4920 O.3    44  TYR44      -0.2866
    135  N         32.0460   58.2350   24.6860 N.am   45  GLN45      -0.1965
    136  CA        30.5840   58.3260   24.6150 C.3    45  GLN45       0.1733
    137  C         29.9540   56.9490   24.7880 C.2    45  GLN45       0.2616
    138  O         30.5860   55.9000   24.6790 O.2    45  GLN45      -0.2715
    139  CB        30.0710   58.9480   23.3180 C.3    45  GLN45       0.0408
    140  CG        30.5360   60.3700   23.0670 C.3    45  GLN45       0.0908
    141  CD        30.2780   60.7750   21.6290 C.2    45  GLN45       0.2608
    142  OE1       31.1290   60.5150   20.7750 O.2    45  GLN45      -0.2717
    143  NE2       29.1230   61.3740   21.3920 N.am   45  GLN45      -0.0878
    144  N         28.6660   56.9440   25.0710 N.am   46  LYS46      -0.1963
    145  CA        27.9280   55.6840   25.1300 C.3    46  LYS46       0.1728
    146  C         28.0690   54.9110   23.8200 C.2    46  LYS46       0.2616
    147  O         28.0740   55.5170   22.7510 O.2    46  LYS46      -0.2715
    148  CB        26.4270   55.8880   25.4440 C.3    46  LYS46       0.0311
    149  CG        26.2350   56.5220   26.8000 C.3    46  LYS46       0.0038
    150  CD        24.8540   57.0600   27.0560 C.3    46  LYS46       0.0206
    151  CE        24.6020   57.4650   28.5080 C.3    46  LYS46       0.1093
    152  NZ        25.4000   58.7110   28.7620 N.3    46  LYS46      -0.1314
    153  N         28.2050   53.6090   23.9470 N.am   47  CYS47      -0.1954
    154  CA        28.5960   52.7910   22.7950 C.3    47  CYS47       0.1843
    155  C         27.6330   52.9000   21.6320 C.2    47  CYS47       0.2625
    156  O         28.0060   52.8330   20.4830 O.2    47  CYS47      -0.2714
    157  CB        28.7930   51.3230   23.1860 C.3    47  CYS47       0.0997
    158  SG        29.7860   50.9620   24.6330 S.3    47  CYS47      -0.0797
    159  N         26.3480   53.0960   21.7740 N.am   48  ALA48      -0.1977
    160  CA        25.2160   53.0960   20.9140 C.3    48  ALA48       0.1597
    161  C         24.7910   54.5240   20.5640 C.2    48  ALA48       0.2287
    162  O         23.7450   54.6950   19.9510 O.2    48  ALA48      -0.2864
    163  CB        24.0020   52.3600   21.4890 C.3    48  ALA48       0.0319
    164  N         25.1360   46.9760   17.0120 N.3    66  TYR66      -0.1241
    165  CA        25.2900   46.9500   18.4550 C.3    66  TYR66       0.1605
    166  C         25.4660   45.5270   18.9630 C.2    66  TYR66       0.2264
    167  O         26.3950   45.2670   19.7550 O.2    66  TYR66      -0.2867
    168  CB        24.0800   47.6080   19.1150 C.3    66  TYR66       0.0534
    169  CG        24.1670   47.7780   20.6240 C.ar   66  TYR66      -0.0201
    170  CD1       23.1690   47.2760   21.4360 C.ar   66  TYR66      -0.0009
    171  CD2       25.2050   48.4650   21.2400 C.ar   66  TYR66      -0.0009
    172  CE1       23.2050   47.4290   22.8070 C.ar   66  TYR66       0.0417
    173  CE2       25.2710   48.6300   22.6040 C.ar   66  TYR66       0.0417
    174  CZ        24.2490   48.0980   23.3750 C.ar   66  TYR66       0.1957
    175  OH        24.3260   48.2680   24.7170 O.3    66  TYR66      -0.2866
    176  N         28.9670   43.7750   20.7890 N.3    70  MET70      -0.1245
    177  CA        28.9840   43.2310   22.1400 C.3    70  MET70       0.1570
    178  C         29.2470   41.7330   22.2020 C.2    70  MET70       0.2261
    179  O         29.6790   41.2140   23.2500 O.2    70  MET70      -0.2867
    180  CB        27.6750   43.5480   22.9120 C.3    70  MET70       0.0387
    181  CG        27.3380   45.0280   22.9290 C.3    70  MET70       0.0595
    182  SD        28.5870   46.0300   23.7380 S.3    70  MET70      -0.1393
    183  CE        29.0380   47.1840   22.4630 C.3    70  MET70       0.0692
    184  N         32.6330   42.1760   24.3490 N.3    80  CYS80      -0.1235
    185  CA        32.3810   41.6270   25.6650 C.3    80  CYS80       0.1677
    186  C         32.5290   40.1140   25.6430 C.2    80  CYS80       0.2270
    187  O         33.3080   39.5700   26.4230 O.2    80  CYS80      -0.2867
    188  CB        30.9670   41.9450   26.1320 C.3    80  CYS80       0.0956
    189  SG        30.2920   43.6100   25.9810 S.3    80  CYS80      -0.0801
@<TRIPOS>BOND
     1   164   165    1
     2   165   166    1
     3   165   168    1
     4   166   167    2
     5   168   169    1
     6   162   161    2
     7   156   155    2
     8   161   160    1
     9   169   171   ar
    10   169   170   ar
    11   142   141    2
    12   176   177    1
    13   160   163    1
    14   160   159    1
    15   171   173   ar
    16   143   141   am
    17   170   172   ar
    18   141   140    1
    19   155   159   am
    20   155   154    1
    21   177   178    1
    22   177   180    1
    23   178   179    2
    24   183   182    1
    25   173   174   ar
    26   147   146    2
    27   154   157    1
    28   154   153    1
    29   172   174   ar
    30   180   181    1
    31   181   182    1
    32   140   139    1
    33   157   158    1
    34   139   136    1
    35   174   175    1
    36   110   109    2
    37   146   153   am
    38   146   145    1
    39   115   116    2
    40   115   114    1
    41   184   185    1
    42   100    99    1
    43   136   135    1
    44   136   137    1
    45   138   137    2
    46   135   125   am
    47   109   108    1
    48   109   113   am
    49   123   124    1
    50   137   144   am
    51   114   113    1
    52   114   117    1
    53   144   145    1
    54   145   148    1
    55   108   107    1
    56   108   111    1
    57   148   149    1
    58   186   185    1
    59   186   187    2
    60   185   188    1
    61    99    98    1
    62   125   124    1
    63   125   126    2
    64   124   127    1
    65   189   188    1
    66   117   118    1
    67   111   112    1
    68   149   150    1
    69    53    52    1
    70   130   132   ar
    71   130   128   ar
    72    98    97    1
    73   119   118   ar
    74   119   121   ar
    75   150   151    1
    76   127   128    1
    77   132   133   ar
    78   118   120   ar
    79   104   103    2
    80   128   129   ar
    81   103   102    1
    82    97    96    2
    83   121   122   ar
    84   133   134    1
    85   133   131   ar
    86    95    94    2
    87   129   131   ar
    88   120   122   ar
    89    52    51    1
    90   151   152    1
    91    96    93    1
    92    50    51    1
    93    50    47    1
    94    90    89    1
    95    48    49    2
    96    48    47    1
    97    94    93    1
    98    94   101   am
    99   102   101    1
   100   102   105    1
   101    47    46    1
   102    93    92    1
   103    92    87   am
   104   105   106    1
   105     6     7    1
   106     6     5    1
   107    89    91    1
   108    89    86    1
   109     7     1    1
   110    87    86    1
   111    87    88    2
   112    46    39   am
   113    86    85    1
   114    40    39    2
   115     5     2    1
   116    62    60   ar
   117    62    64   ar
   118    60    59   ar
   119    39    38    1
   120    64    63   ar
   121    36    34    1
   122     1     2    1
   123    59    58    1
   124    59    61   ar
   125    82    84   ar
   126    82    80   ar
   127    58    55    1
   128    84    83   ar
   129    63    61   ar
   130     2     3    1
   131    74    73   ar
   132    74    72   ar
   133    42    43    1
   134    42    41    1
   135    38    41    1
   136    38    37    1
   137    35    34    1
   138    80    79    1
   139    80    81   ar
   140    73    71   ar
   141    83    81   ar
   142    34    33    1
   143    43    44    1
   144    79    76    1
   145    55    54    1
   146    55    56    1
   147    78    77    2
   148     3     4    2
   149     3     8   am
   150    72    70   ar
   151    32    31    2
   152    37    31   am
   153    31    30    1
   154    33    30    1
   155    71    70   ar
   156     8     9    1
   157    76    77    1
   158    76    75    1
   159    70    69    1
   160    28    27    1
   161    28    22    1
   162    44    45    1
   163    27    26    1
   164    56    57    2
   165    11    10    2
   166    30    29    1
   167    10     9    1
   168    10    17   am
   169     9    12    1
   170    18    17    1
   171    18    21    1
   172    18    19    1
   173    26    23    1
   174    69    66    1
   175    66    65    1
   176    66    67    1
   177    22    19   am
   178    22    23    1
   179    68    67    2
   180    19    20    2
   181    12    13    1
   182    23    24    1
   183    13    14    1
   184    24    25    2
   185    15    14    1
   186    15    16    1
