@<TRIPOS>MOLECULE
tmp/1wr5A03.pdb
 183 173 0 0 0
SMALL
GASTEIGER

@<TRIPOS>ATOM
      1  N         23.3820   48.8900   30.7440 N.3    12  MET12      -0.1245
      2  CA        23.3170   48.9780   29.3010 C.3    12  MET12       0.1570
      3  C         21.9180   48.4960   28.9240 C.2    12  MET12       0.2261
      4  O         21.6470   47.3120   29.1030 O.2    12  MET12      -0.2867
      5  CB        24.4320   48.1520   28.6370 C.3    12  MET12       0.0387
      6  CG        25.8130   48.5390   29.1500 C.3    12  MET12       0.0595
      7  SD        27.1260   47.4980   28.4830 S.3    12  MET12      -0.1393
      8  CE        27.2570   48.1760   26.8440 C.3    12  MET12       0.0692
      9  N         22.0210   44.6830   30.3300 N.3    19  VAL19      -0.1231
     10  CA        23.1930   44.1190   30.9790 C.3    19  VAL19       0.1692
     11  C         23.8720   45.1590   31.8520 C.2    19  VAL19       0.2592
     12  O         24.0220   46.3320   31.4640 O.2    19  VAL19      -0.2718
     13  CB        24.1590   43.5930   29.8820 C.3    19  VAL19       0.0266
     14  CG1       25.4440   43.0650   30.4960 C.3    19  VAL19       0.0020
     15  CG2       23.4860   42.5320   29.0170 C.3    19  VAL19       0.0020
     16  N         24.3020   44.7670   33.0570 N.am   20  VAL20      -0.1966
     17  CA        25.0120   45.6490   33.9900 C.3    20  VAL20       0.1727
     18  C         26.5230   45.5490   33.8030 C.2    20  VAL20       0.2616
     19  O         27.1180   44.4510   33.7660 O.2    20  VAL20      -0.2715
     20  CB        24.6330   45.3430   35.4430 C.3    20  VAL20       0.0290
     21  CG1       25.5350   46.1170   36.3870 C.3    20  VAL20       0.0023
     22  CG2       23.1640   45.6920   35.7010 C.3    20  VAL20       0.0023
     23  N         27.1450   46.7190   33.6550 N.am   21  PHE21      -0.1960
     24  CA        28.5770   46.8250   33.4760 C.3    21  PHE21       0.1771
     25  C         29.2310   47.4430   34.7170 C.2    21  PHE21       0.2619
     26  O         28.8470   48.5350   35.1320 O.2    21  PHE21      -0.2715
     27  CB        28.9630   47.6730   32.2520 C.3    21  PHE21       0.0574
     28  CG        30.4730   47.6450   32.0470 C.ar   21  PHE21      -0.0200
     29  CD1       31.0450   46.5510   31.4380 C.ar   21  PHE21      -0.0042
     30  CD2       31.2670   48.6980   32.4700 C.ar   21  PHE21      -0.0042
     31  CE1       32.4160   46.5150   31.2760 C.ar   21  PHE21      -0.0003
     32  CE2       32.6400   48.6290   32.3320 C.ar   21  PHE21      -0.0003
     33  CZ        33.2240   47.5200   31.7470 C.ar   21  PHE21      -0.0000
     34  N         30.2200   46.7360   35.2410 N.am   22  ASN22      -0.1972
     35  CA        30.9550   47.1580   36.4290 C.3    22  ASN22       0.1688
     36  C         32.4050   47.4380   36.0780 C.2    22  ASN22       0.2292
     37  O         33.1280   46.5270   35.6660 O.2    22  ASN22      -0.2864
     38  CB        30.8350   46.1020   37.5270 C.3    22  ASN22       0.1181
     39  CG        29.3990   45.7860   37.8800 C.2    22  ASN22       0.2629
     40  OD1       28.6460   46.6980   38.2480 O.2    22  ASN22      -0.2716
     41  ND2       29.0460   44.5120   37.7850 N.am   22  ASN22      -0.0877
     42  N         35.4650   45.4240   37.9140 N.3    25  THR25      -0.1203
     43  CA        35.9470   44.0790   37.5780 C.3    25  THR25       0.1994
     44  C         36.7350   44.0620   36.2820 C.2    25  THR25       0.2617
     45  O         37.1680   42.9930   35.8350 O.2    25  THR25      -0.2717
     46  CB        34.7670   43.1000   37.5170 C.3    25  THR25       0.1784
     47  OG1       33.7550   43.6960   36.7090 O.3    25  THR25      -0.2211
     48  CG2       34.2470   42.8710   38.9390 C.3    25  THR25       0.0376
     49  N         36.9640   45.2640   35.7340 N.am   26  HIS26      -0.1975
     50  CA        37.6480   45.4090   34.4490 C.3    26  HIS26       0.1656
     51  C         38.8950   46.2580   34.5200 C.2    26  HIS26       0.2291
     52  O         39.3330   46.7570   33.4880 O.2    26  HIS26      -0.2864
     53  CB        36.6400   45.9910   33.4240 C.3    26  HIS26       0.0771
     54  CG        35.5930   44.9890   33.0470 C.ar   26  HIS26       0.0820
     55  ND1       34.3840   44.9180   33.7120 N.ar   26  HIS26      -0.2267
     56  CD2       35.5350   44.0400   32.1130 C.ar   26  HIS26       0.1154
     57  CE1       33.6490   43.9710   33.2300 C.ar   26  HIS26       0.1986
     58  NE2       34.3240   43.4330   32.2580 N.ar   26  HIS26      -0.2212
     59  N         41.8240   45.2380   34.7730 N.3    28  ALA28      -0.1231
     60  CA        42.9390   44.6110   34.0470 C.3    28  ALA28       0.1694
     61  C         42.9220   45.0000   32.5710 C.2    28  ALA28       0.2591
     62  O         43.8110   44.6300   31.7920 O.2    28  ALA28      -0.2718
     63  CB        42.8890   43.1040   34.2040 C.3    28  ALA28       0.0304
     64  N         41.9040   45.7430   32.1430 N.am   29  VAL29      -0.1980
     65  CA        41.7010   46.1810   30.7690 C.3    29  VAL29       0.1595
     66  C         41.9090   47.6740   30.6180 C.2    29  VAL29       0.2287
     67  O         41.3090   48.4220   31.4030 O.2    29  VAL29      -0.2864
     68  CB        40.2750   45.8080   30.2890 C.3    29  VAL29       0.0276
     69  CG1       40.1010   46.3030   28.8620 C.3    29  VAL29       0.0022
     70  CG2       40.0740   44.3150   30.3740 C.3    29  VAL29       0.0022
     71  N         40.7790   50.2260   25.4020 N.3    33  ASP33      -0.1225
     72  CA        40.4120   49.0010   24.7020 C.3    33  ASP33       0.1805
     73  C         38.9060   48.8160   24.5810 C.2    33  ASP33       0.2598
     74  O         38.4220   47.9340   23.8690 O.2    33  ASP33      -0.2718
     75  CB        41.0240   47.7960   25.4380 C.3    33  ASP33       0.1424
     76  CG        42.4980   47.7090   25.0790 C.2    33  ASP33       0.3668
     77  OD1       42.9130   48.2980   24.0680 O.co2  33  ASP33      -0.2456
     78  OD2       43.2170   47.0470   25.8510 O.co2  33  ASP33      -0.2456
     79  N         38.1640   49.6620   25.2890 N.am   34  CYS34      -0.1970
     80  CA        36.7300   49.7360   25.2000 C.3    34  CYS34       0.1712
     81  C         36.2930   51.1110   24.6930 C.2    34  CYS34       0.2296
     82  O         35.5330   51.1480   23.7170 O.2    34  CYS34      -0.2864
     83  CB        36.0950   49.4240   26.5580 C.3    34  CYS34       0.0983
     84  SG        36.4920   47.7760   27.1730 S.3    34  CYS34      -0.0798
     85  N         28.2050   53.6090   23.9470 N.3    47  CYS47      -0.1235
     86  CA        28.5960   52.7910   22.7950 C.3    47  CYS47       0.1677
     87  C         27.6330   52.9000   21.6320 C.2    47  CYS47       0.2270
     88  O         28.0060   52.8330   20.4830 O.2    47  CYS47      -0.2867
     89  CB        28.7930   51.3230   23.1860 C.3    47  CYS47       0.0956
     90  SG        29.7860   50.9620   24.6330 S.3    47  CYS47      -0.0801
     91  N         28.9670   43.7750   20.7890 N.3    70  MET70      -0.1245
     92  CA        28.9840   43.2310   22.1400 C.3    70  MET70       0.1570
     93  C         29.2470   41.7330   22.2020 C.2    70  MET70       0.2261
     94  O         29.6790   41.2140   23.2500 O.2    70  MET70      -0.2867
     95  CB        27.6750   43.5480   22.9120 C.3    70  MET70       0.0387
     96  CG        27.3380   45.0280   22.9290 C.3    70  MET70       0.0595
     97  SD        28.5870   46.0300   23.7380 S.3    70  MET70      -0.1393
     98  CE        29.0380   47.1840   22.4630 C.3    70  MET70       0.0692
     99  N         38.2240   44.0130   21.0700 N.3    78  LYS78      -0.1231
    100  CA        37.5150   42.8520   21.6540 C.3    78  LYS78       0.1693
    101  C         36.0710   43.1990   22.0100 C.2    78  LYS78       0.2593
    102  O         35.7790   44.2720   22.5470 O.2    78  LYS78      -0.2718
    103  CB        38.1620   42.3580   22.9510 C.3    78  LYS78       0.0285
    104  CG        39.6320   41.9980   22.7960 C.3    78  LYS78       0.0035
    105  CD        39.8400   40.7630   21.9800 C.3    78  LYS78       0.0206
    106  CE        41.3290   40.4560   21.9110 C.3    78  LYS78       0.1093
    107  NZ        41.5970   39.1700   21.1740 N.3    78  LYS78      -0.1314
    108  N         35.1730   42.2780   21.7430 N.am   79  SER79      -0.1938
    109  CA        33.8160   42.4280   22.2520 C.3    79  SER79       0.2055
    110  C         33.7420   41.8560   23.6610 C.2    79  SER79       0.2643
    111  O         34.6360   41.1450   24.1300 O.2    79  SER79      -0.2714
    112  CB        32.7830   41.7530   21.3760 C.3    79  SER79       0.2130
    113  OG        32.9300   40.3370   21.4670 O.3    79  SER79      -0.2179
    114  N         32.6330   42.1760   24.3490 N.am   80  CYS80      -0.1967
    115  CA        32.3810   41.6270   25.6650 C.3    80  CYS80       0.1712
    116  C         32.5290   40.1140   25.6430 C.2    80  CYS80       0.2296
    117  O         33.3080   39.5700   26.4230 O.2    80  CYS80      -0.2864
    118  CB        30.9670   41.9450   26.1320 C.3    80  CYS80       0.0983
    119  SG        30.2920   43.6100   25.9810 S.3    80  CYS80      -0.0798
    120  N         36.2360   38.7490   24.4350 N.3    83  CYS83      -0.1221
    121  CA        37.2560   38.7360   25.4740 C.3    83  CYS83       0.1808
    122  C         36.9530   37.7230   26.5620 C.2    83  CYS83       0.2601
    123  O         37.8070   37.0670   27.1350 O.2    83  CYS83      -0.2717
    124  CB        37.3770   40.1210   26.1520 C.3    83  CYS83       0.0970
    125  SG        38.5940   40.0960   27.4950 S.3    83  CYS83      -0.0800
    126  N         35.6610   37.6270   26.9280 N.am   84  HIS84      -0.1975
    127  CA        35.2720   36.6590   27.9610 C.3    84  HIS84       0.1656
    128  C         35.5280   35.2470   27.5210 C.2    84  HIS84       0.2291
    129  O         35.8860   34.4220   28.3740 O.2    84  HIS84      -0.2864
    130  CB        33.8070   36.8470   28.3510 C.3    84  HIS84       0.0771
    131  CG        33.5880   38.0550   29.1940 C.ar   84  HIS84       0.0820
    132  ND1       32.3910   38.2020   29.8920 N.ar   84  HIS84      -0.2267
    133  CD2       34.2770   39.1610   29.5040 C.ar   84  HIS84       0.1154
    134  CE1       32.4210   39.3110   30.5290 C.ar   84  HIS84       0.1986
    135  NE2       33.5730   39.9840   30.3540 N.ar   84  HIS84      -0.2212
    136  N         39.0680   34.6470   28.2130 N.3    87  THR87      -0.1218
    137  CA        39.3130   34.6320   29.6490 C.3    87  THR87       0.1862
    138  C         38.8720   33.3560   30.3430 C.2    87  THR87       0.2287
    139  O         39.5830   32.8160   31.2140 O.2    87  THR87      -0.2866
    140  CB        38.5570   35.8060   30.2900 C.3    87  THR87       0.1770
    141  OG1       39.0270   37.0340   29.7340 O.3    87  THR87      -0.2211
    142  CG2       38.8410   35.8460   31.7710 C.3    87  THR87       0.0375
    143  N         33.4200   29.1300   34.4180 N.3    94  LYS94      -0.1245
    144  CA        33.6900   30.4980   33.9590 C.3    94  LYS94       0.1561
    145  C         33.0860   30.7300   32.5900 C.2    94  LYS94       0.2260
    146  O         32.6510   31.8350   32.2900 O.2    94  LYS94      -0.2867
    147  CB        35.1800   30.7340   33.9860 C.3    94  LYS94       0.0271
    148  CG        35.6620   30.9570   35.4110 C.3    94  LYS94       0.0035
    149  CD        35.2900   32.3250   35.9350 C.3    94  LYS94       0.0206
    150  CE        35.7130   32.5460   37.3640 C.3    94  LYS94       0.1093
    151  NZ        35.2050   33.8020   37.9580 N.3    94  LYS94      -0.1314
    152  N         29.5430   31.5560   33.5390 N.3    97  GLU97      -0.1182
    153  CA        29.4240   32.8680   34.1950 C.3    97  GLU97       0.1915
    154  C         29.6740   34.0190   33.2360 C.2    97  GLU97       0.2634
    155  O         29.0200   35.0630   33.2500 O.2    97  GLU97      -0.2714
    156  CB        30.3930   32.9200   35.3730 C.2    97  GLU97       0.0085
    157  CG        30.3560   34.1480   36.2430 C.2    97  GLU97       0.0835
    158  CD        31.4890   34.2840   37.2400 C.2    97  GLU97       0.3877
    159  OE1       31.5940   35.3320   37.9040 O.co2  97  GLU97      -0.2406
    160  OE2       32.3280   33.3650   37.3510 O.co2  97  GLU97      -0.2406
    161  N         30.6640   33.8290   32.3710 N.am   98  LEU98      -0.1977
    162  CA        31.1570   34.9510   31.5770 C.3    98  LEU98       0.1596
    163  C         30.6590   34.9600   30.1420 C.2    98  LEU98       0.2287
    164  O         30.7370   36.0010   29.4760 O.2    98  LEU98      -0.2864
    165  CB        32.6870   34.9820   31.5620 C.3    98  LEU98       0.0297
    166  CG        33.3850   35.0810   32.9420 C.3    98  LEU98       0.0022
    167  CD1       34.8990   35.0730   32.7280 C.3    98  LEU98       0.0001
    168  CD2       32.9110   36.3160   33.6920 C.3    98  LEU98       0.0001
    169  N         26.4940   36.1060   34.1880 N.3   105  LYS105     -0.1231
    170  CA        26.5130   37.4090   34.8460 C.3   105  LYS105      0.1693
    171  C         26.1370   38.5370   33.9270 C.2   105  LYS105      0.2592
    172  O         25.8240   39.6580   34.3790 O.2   105  LYS105     -0.2718
    173  CB        27.9170   37.6440   35.4180 C.3   105  LYS105      0.0285
    174  CG        28.0940   36.7340   36.6370 C.3   105  LYS105      0.0035
    175  CD        28.4440   37.4660   37.9030 C.3   105  LYS105      0.0206
    176  CE        28.8430   36.5300   39.0440 C.3   105  LYS105      0.1093
    177  NZ        30.2610   36.7440   39.4500 N.3   105  LYS105     -0.1314
    178  N         26.1300   38.3060   32.6240 N.am  106  CYS106     -0.1970
    179  CA        25.5130   39.3010   31.7490 C.3   106  CYS106      0.1712
    180  C         23.9960   39.1960   31.6290 C.2   106  CYS106      0.2296
    181  O         23.2580   40.1450   31.7710 O.2   106  CYS106     -0.2864
    182  CB        26.1000   39.1790   30.3380 C.3   106  CYS106      0.0983
    183  SG        27.8740   39.5100   30.3110 S.3   106  CYS106     -0.0798
@<TRIPOS>BOND
     1    88    87    2
     2    91    92    1
     3    99   100    1
     4   107   106    1
     5   112   113    1
     6   112   109    1
     7    87    86    1
     8   100   101    1
     9   100   103    1
    10   108   101   am
    11   108   109    1
    12   106   105    1
    13   105   104    1
    14   101   102    2
    15    92    93    1
    16    92    95    1
    17    93    94    2
    18   109   110    1
    19    98    97    1
    20    86    89    1
    21    86    85    1
    22   104   103    1
    23    95    96    1
    24    96    97    1
    25    89    90    1
    26   110   111    2
    27   110   114   am
    28    82    81    2
    29    74    73    2
    30    77    76   ar
    31   114   115    1
    32   120   121    1
    33    73    72    1
    34    73    79   am
    35    81    80    1
    36    72    71    1
    37    72    75    1
    38    76    75    1
    39    76    78   ar
    40    80    79    1
    41    80    83    1
    42   121   124    1
    43   121   122    1
    44   116   115    1
    45   116   117    2
    46   115   118    1
    47   119   118    1
    48   124   125    1
    49    83    84    1
    50   122   126   am
    51   122   123    2
    52     8     7    1
    53   126   127    1
    54   128   127    1
    55   128   129    2
    56   127   130    1
    57   136   137    1
    58   130   131    1
    59     7     6    1
    60     5     6    1
    61     5     2    1
    62    69    68    1
    63     3     4    2
    64     3     2    1
    65    15    13    1
    66   131   133   ar
    67   131   132   ar
    68     2     1    1
    69   164   163    2
    70   133   135   ar
    71   137   140    1
    72   137   138    1
    73   141   140    1
    74    13    14    1
    75    13    10    1
    76   132   134   ar
    77   163   162    1
    78    68    70    1
    79    68    65    1
    80   140   142    1
    81   183   182    1
    82     9    10    1
    83   182   179    1
    84   138   139    2
    85   135   134   ar
    86    66    65    1
    87    66    67    2
    88    65    64    1
    89    10    11    1
    90    31    29   ar
    91    31    33   ar
    92    29    28   ar
    93    12    11    2
    94   165   162    1
    95   165   166    1
    96   162   161    1
    97   180   179    1
    98   180   181    2
    99    33    32   ar
   100   179   178    1
   101    62    61    2
   102    11    16   am
   103    28    27    1
   104    28    30   ar
   105    56    58   ar
   106    56    54   ar
   107    64    61   am
   108    27    24    1
   109    58    57   ar
   110   146   145    2
   111    32    30   ar
   112   161   154   am
   113    61    60    1
   114   145   144    1
   115   178   171   am
   116   167   166    1
   117   166   168    1
   118    54    53    1
   119    54    55   ar
   120    16    17    1
   121    57    55   ar
   122   154   155    2
   123   154   153    1
   124    53    50    1
   125    24    23    1
   126    24    25    1
   127    52    51    2
   128   152   153    1
   129    23    18   am
   130    19    18    2
   131    18    17    1
   132   171   172    2
   133   171   170    1
   134   144   147    1
   135   144   143    1
   136   147   148    1
   137    17    20    1
   138    60    63    1
   139    60    59    1
   140   169   170    1
   141   153   156    1
   142    50    51    1
   143    50    49    1
   144    25    26    2
   145    25    34   am
   146   170   173    1
   147    34    35    1
   148   156   157    2
   149   148   149    1
   150   173   174    1
   151    20    22    1
   152    20    21    1
   153    37    36    2
   154    49    44   am
   155    45    44    2
   156   149   150    1
   157    36    35    1
   158   157   158    1
   159    44    43    1
   160    35    38    1
   161   174   175    1
   162    47    46    1
   163   158   160   ar
   164   158   159   ar
   165   150   151    1
   166    46    43    1
   167    46    48    1
   168    38    39    1
   169    43    42    1
   170    41    39   am
   171    39    40    2
   172   175   176    1
   173   176   177    1
