@<TRIPOS>MOLECULE
tmp/1wriA00.pdb
 78 76 0 0 0
SMALL
GASTEIGER

@<TRIPOS>ATOM
      1  N         36.5200   27.1890   -0.6630 N.3    48  LYS48      -0.1231
      2  CA        35.3280   27.9740   -0.3620 C.3    48  LYS48       0.1693
      3  C         34.2950   27.6850   -1.4130 C.2    48  LYS48       0.2592
      4  O         34.5590   27.7970   -2.5970 O.2    48  LYS48      -0.2718
      5  CB        35.6370   29.4830   -0.3330 C.3    48  LYS48       0.0285
      6  CG        34.5330   30.1930    0.4790 C.3    48  LYS48       0.0035
      7  CD        34.9170   31.6440    0.7410 C.3    48  LYS48       0.0206
      8  CE        34.1150   32.2940    1.8280 C.3    48  LYS48       0.1093
      9  NZ        34.8110   33.2770    2.6910 N.3    48  LYS48      -0.1314
     10  N         33.0930   27.3030   -0.9930 N.am   49  ILE49      -0.1966
     11  CA        32.0150   27.0170   -1.9390 C.3    49  ILE49       0.1727
     12  C         31.4230   28.3310   -2.4200 C.2    49  ILE49       0.2616
     13  O         30.9790   29.1310   -1.6270 O.2    49  ILE49      -0.2715
     14  CB        30.9650   26.1520   -1.3010 C.3    49  ILE49       0.0290
     15  CG1       31.4830   24.8470   -0.7560 C.3    49  ILE49       0.0022
     16  CG2       29.8270   25.8930   -2.3200 C.3    49  ILE49       0.0023
     17  CD1       30.5650   24.2090    0.2900 C.3    49  ILE49       0.0001
     18  N         31.3860   28.4920   -3.7400 N.am   50  VAL50      -0.1963
     19  CA        30.7920   29.6560   -4.3830 C.3    50  VAL50       0.1727
     20  C         29.3300   29.3930   -4.7130 C.2    50  VAL50       0.2617
     21  O         28.5030   30.3030   -4.6280 O.2    50  VAL50      -0.2715
     22  CB        31.5400   29.9790   -5.7120 C.3    50  VAL50       0.0290
     23  CG1       30.8290   31.1190   -6.4170 C.3    50  VAL50       0.0023
     24  CG2       32.9980   30.3010   -5.4450 C.3    50  VAL50       0.0023
     25  N         28.9720   28.1810   -5.1030 N.am   51  SER51      -0.1936
     26  CA        27.5710   27.8420   -5.4100 C.3    51  SER51       0.2055
     27  C         27.4090   26.3390   -5.2290 C.2    51  SER51       0.2644
     28  O         28.3860   25.5790   -5.3830 O.2    51  SER51      -0.2714
     29  CB        27.1790   28.3070   -6.8340 C.3    51  SER51       0.2130
     30  OG        27.9480   27.6650   -7.7830 O.3    51  SER51      -0.2179
     31  N         26.1850   25.9360   -4.9290 N.am   52  GLY52      -0.1939
     32  CA        25.8680   24.5370   -4.7540 C.3    52  GLY52       0.2014
     33  C         26.0740   24.0510   -3.3210 C.2    52  GLY52       0.2640
     34  O         26.3250   24.8180   -2.4120 O.2    52  GLY52      -0.2714
     35  N         25.9590   22.7490   -3.1640 N.am   53  THR53      -0.1936
     36  CA        25.9580   22.1400   -1.8390 C.3    53  THR53       0.2028
     37  C         26.8280   20.9060   -1.7950 C.2    53  THR53       0.2642
     38  O         26.8840   20.1450   -2.7940 O.2    53  THR53      -0.2714
     39  CB        24.4950   21.7450   -1.4960 C.3    53  THR53       0.1808
     40  OG1       24.4480   21.1740   -0.1960 O.3    53  THR53      -0.2208
     41  CG2       24.0170   20.7060   -2.4720 C.3    53  THR53       0.0379
     42  N         27.4760   20.6690   -0.6890 N.am   54  VAL54      -0.1977
     43  CA        28.2000   19.4220   -0.4380 C.3    54  VAL54       0.1596
     44  C         27.7860   18.8480    0.9050 C.2    54  VAL54       0.2287
     45  O         27.3480   19.5540    1.8110 O.2    54  VAL54      -0.2864
     46  CB        29.7460   19.5600   -0.4330 C.3    54  VAL54       0.0276
     47  CG1       30.2060   20.2640   -1.7180 C.3    54  VAL54       0.0022
     48  CG2       30.2250   20.3520    0.7650 C.3    54  VAL54       0.0022
     49  N         31.8700   26.7430    8.5810 N.3    67  ILE67      -0.1231
     50  CA        30.9550   26.0170    7.6880 C.3    67  ILE67       0.1692
     51  C         29.8610   26.9360    7.1820 C.2    67  ILE67       0.2592
     52  O         29.4880   26.8800    5.9960 O.2    67  ILE67      -0.2718
     53  CB        30.3810   24.7820    8.3950 C.3    67  ILE67       0.0266
     54  CG1       31.4920   23.7840    8.6830 C.3    67  ILE67       0.0019
     55  CG2       29.2790   24.1490    7.5210 C.3    67  ILE67       0.0020
     56  CD1       31.1960   22.5020    9.3600 C.3    67  ILE67       0.0001
     57  N         29.3450   27.7920    8.0410 N.am   68  GLU68      -0.1966
     58  CA        28.2520   28.7090    7.6730 C.3    68  GLU68       0.1733
     59  C         28.7140   29.7440    6.6640 C.2    68  GLU68       0.2616
     60  O         27.8910   30.2630    5.9270 O.2    68  GLU68      -0.2715
     61  CB        27.6800   29.3820    8.9420 C.3    68  GLU68       0.0429
     62  CG        26.7770   28.4110    9.6850 C.3    68  GLU68       0.1163
     63  CD        26.5480   28.7730   11.1250 C.2    68  GLU68       0.3649
     64  OE1       26.8900   29.9000   11.5260 O.co2  68  GLU68      -0.2457
     65  OE2       25.9630   27.9230   11.8180 O.co2  68  GLU68      -0.2457
     66  N         30.0040   30.0350    6.6330 N.am   69  GLN69      -0.1963
     67  CA        30.5430   30.9840    5.6670 C.3    69  GLN69       0.1733
     68  C         30.8500   30.3350    4.3200 C.2    69  GLN69       0.2616
     69  O         31.2520   31.0120    3.3850 O.2    69  GLN69      -0.2715
     70  CB        31.8340   31.5970    6.2330 C.3    69  GLN69       0.0408
     71  CG        31.5770   32.5780    7.3450 C.3    69  GLN69       0.0908
     72  CD        32.8310   32.9700    8.0980 C.2    69  GLN69       0.2608
     73  OE1       33.8740   32.3180    8.0950 O.2    69  GLN69      -0.2717
     74  NE2       32.6780   34.0940    8.7700 N.am   69  GLN69      -0.0878
     75  N         30.7080   29.0080    4.2200 N.am   70  GLY70      -0.1955
     76  CA        30.9190   28.3200    2.9470 C.3    70  GLY70       0.1869
     77  C         32.3070   27.6840    2.8350 C.2    70  GLY70       0.2309
     78  O         32.6150   27.1480    1.7720 O.2    70  GLY70      -0.2863
@<TRIPOS>BOND
     1    30    29    1
     2    29    26    1
     3    23    22    1
     4    22    24    1
     5    22    19    1
     6    26    27    1
     7    26    25    1
     8    28    27    2
     9    27    31   am
    10    25    20   am
    11    31    32    1
    12    32    33    1
    13    20    21    2
    14    20    19    1
    15    19    18    1
    16    18    12   am
    17    33    35   am
    18    33    34    2
    19    35    36    1
    20    38    37    2
    21     4     3    2
    22    41    39    1
    23    12    11    1
    24    12    13    2
    25    16    14    1
    26    11    14    1
    27    11    10    1
    28    36    37    1
    29    36    39    1
    30    37    42   am
    31    47    46    1
    32    39    40    1
    33     3    10   am
    34     3     2    1
    35    14    15    1
    36    15    17    1
    37    42    43    1
    38     1     2    1
    39    43    46    1
    40    43    44    1
    41    46    48    1
    42     2     5    1
    43     5     6    1
    44     6     7    1
    45     7     8    1
    46    44    45    2
    47    78    77    2
    48     8     9    1
    49    77    76    1
    50    76    75    1
    51    69    68    2
    52    75    68   am
    53    68    67    1
    54    67    70    1
    55    67    66    1
    56    60    59    2
    57    52    51    2
    58    70    71    1
    59    66    59   am
    60    59    58    1
    61    51    50    1
    62    51    57   am
    63    71    72    1
    64    55    53    1
    65    58    57    1
    66    58    61    1
    67    50    53    1
    68    50    49    1
    69    73    72    2
    70    72    74   am
    71    53    54    1
    72    54    56    1
    73    61    62    1
    74    62    63    1
    75    63    64   ar
    76    63    65   ar
