@<TRIPOS>MOLECULE
tmp/1wrlD02.pdb
 99 92 0 0 0
SMALL
GASTEIGER

@<TRIPOS>ATOM
      1  N         56.0390   68.0360   24.6420 N.3    10  LEU10      -0.1245
      2  CA        54.7490   68.0410   23.9680 C.3    10  LEU10       0.1561
      3  C         54.9420   68.6620   22.5860 C.2    10  LEU10       0.2260
      4  O         55.7420   69.5850   22.4270 O.2    10  LEU10      -0.2867
      5  CB        53.7380   68.8830   24.7500 C.3    10  LEU10       0.0270
      6  CG        53.4320   68.5250   26.2010 C.3    10  LEU10       0.0019
      7  CD1       52.5800   69.6270   26.8180 C.3    10  LEU10       0.0001
      8  CD2       52.7270   67.1830   26.2680 C.3    10  LEU10       0.0001
      9  N         49.8540   69.2090   20.2260 N.3    14  GLN14      -0.1245
     10  CA        49.3300   68.7910   21.5170 C.3    14  GLN14       0.1566
     11  C         49.1040   69.9860   22.4290 C.2    14  GLN14       0.2260
     12  O         48.1910   69.9920   23.2500 O.2    14  GLN14      -0.2867
     13  CB        50.3040   67.8330   22.1910 C.3    14  GLN14       0.0367
     14  CG        50.4440   66.4950   21.5040 C.3    14  GLN14       0.0905
     15  CD        51.3950   65.5830   22.2460 C.2    14  GLN14       0.2608
     16  OE1       52.5960   65.8490   22.3200 O.2    14  GLN14      -0.2717
     17  NE2       50.8610   64.5080   22.8120 N.am   14  GLN14      -0.0878
     18  N         45.4660   71.6540   24.0820 N.3    18  PHE18      -0.1241
     19  CA        45.2500   72.0040   25.4850 C.3    18  PHE18       0.1605
     20  C         44.7900   73.4530   25.6010 C.2    18  PHE18       0.2264
     21  O         43.9280   73.7770   26.4200 O.2    18  PHE18      -0.2867
     22  CB        46.5300   71.8080   26.2990 C.3    18  PHE18       0.0534
     23  CG        46.8730   70.3670   26.5620 C.ar   18  PHE18      -0.0203
     24  CD1       45.9390   69.5120   27.1420 C.ar   18  PHE18      -0.0042
     25  CD2       48.1370   69.8730   26.2520 C.ar   18  PHE18      -0.0042
     26  CE1       46.2630   68.1810   27.4060 C.ar   18  PHE18      -0.0003
     27  CE2       48.4710   68.5470   26.5110 C.ar   18  PHE18      -0.0003
     28  CZ        47.5340   67.6980   27.0900 C.ar   18  PHE18      -0.0000
     29  N         41.1520   73.5910   25.0240 N.3    21  ALA21      -0.1245
     30  CA        40.3880   73.1630   26.1900 C.3    21  ALA21       0.1562
     31  C         40.4860   74.2320   27.2680 C.2    21  ALA21       0.2260
     32  O         39.5020   74.5320   27.9440 O.2    21  ALA21      -0.2867
     33  CB        40.9220   71.8240   26.7140 C.3    21  ALA21       0.0290
     34  N         37.3120   76.2490   28.9790 N.3    25  PHE25      -0.1241
     35  CA        37.0800   76.1540   30.4220 C.3    25  PHE25       0.1605
     36  C         37.0000   77.5370   31.0650 C.2    25  PHE25       0.2264
     37  O         36.0740   77.8340   31.8190 O.2    25  PHE25      -0.2867
     38  CB        38.2050   75.3730   31.1210 C.3    25  PHE25       0.0534
     39  CG        38.3860   73.9630   30.6270 C.ar   25  PHE25      -0.0203
     40  CD1       37.3450   73.2770   30.0090 C.ar   25  PHE25      -0.0042
     41  CD2       39.5990   73.3080   30.8190 C.ar   25  PHE25      -0.0042
     42  CE1       37.5120   71.9520   29.5890 C.ar   25  PHE25      -0.0003
     43  CE2       39.7780   71.9880   30.4060 C.ar   25  PHE25      -0.0003
     44  CZ        38.7310   71.3070   29.7880 C.ar   25  PHE25      -0.0000
     45  N         34.4690   71.4380   34.9100 N.3    42  VAL42      -0.1245
     46  CA        35.0550   70.5410   33.9260 C.3    42  VAL42       0.1561
     47  C         35.0360   69.1050   34.4300 C.2    42  VAL42       0.2260
     48  O         34.5560   68.2000   33.7450 O.2    42  VAL42      -0.2867
     49  CB        36.5200   70.9190   33.6250 C.3    42  VAL42       0.0252
     50  CG1       37.0910   69.9810   32.5750 C.3    42  VAL42       0.0019
     51  CG2       36.6040   72.3600   33.1650 C.3    42  VAL42       0.0019
     52  N         32.8070   65.1610   33.3210 N.3    46  LEU46      -0.1245
     53  CA        33.5920   63.9790   33.0020 C.3    46  LEU46       0.1561
     54  C         33.2700   62.8370   33.9640 C.2    46  LEU46       0.2260
     55  O         33.9850   61.8340   34.0150 O.2    46  LEU46      -0.2867
     56  CB        35.0870   64.3040   33.0480 C.3    46  LEU46       0.0270
     57  CG        35.5620   65.3850   32.0730 C.3    46  LEU46       0.0019
     58  CD1       37.0820   65.3520   31.9950 C.3    46  LEU46       0.0001
     59  CD2       34.9720   65.1500   30.6900 C.3    46  LEU46       0.0001
     60  N         48.6540   75.3480   33.5060 N.3    75  PHE75      -0.1241
     61  CA        47.7360   74.3090   33.0630 C.3    75  PHE75       0.1605
     62  C         48.4910   73.1580   32.4150 C.2    75  PHE75       0.2264
     63  O         48.1740   71.9940   32.6510 O.2    75  PHE75      -0.2867
     64  CB        46.7190   74.8800   32.0740 C.3    75  PHE75       0.0534
     65  CG        45.7220   73.8660   31.5890 C.ar   75  PHE75      -0.0203
     66  CD1       44.8420   73.2550   32.4790 C.ar   75  PHE75      -0.0042
     67  CD2       45.6710   73.5050   30.2460 C.ar   75  PHE75      -0.0042
     68  CE1       43.9290   72.2910   32.0410 C.ar   75  PHE75      -0.0003
     69  CE2       44.7620   72.5410   29.7980 C.ar   75  PHE75      -0.0003
     70  CZ        43.8870   71.9350   30.7010 C.ar   75  PHE75      -0.0000
     71  N         49.9110   71.0030   34.9970 N.3    78  MET78      -0.1230
     72  CA        48.8630   70.1750   35.5820 C.3    78  MET78       0.1702
     73  C         48.6220   68.9700   34.6730 C.2    78  MET78       0.2592
     74  O         48.4600   67.8460   35.1460 O.2    78  MET78      -0.2718
     75  CB        47.5730   70.9860   35.7300 C.3    78  MET78       0.0401
     76  CG        46.5020   70.3230   36.5900 C.3    78  MET78       0.0596
     77  SD        44.9790   71.3030   36.6790 S.3    78  MET78      -0.1393
     78  CE        45.3350   72.3800   38.0500 C.3    78  MET78       0.0692
     79  N         48.6020   69.2080   33.3630 N.am   79  MET79      -0.1965
     80  CA        48.3950   68.1330   32.3960 C.3    79  MET79       0.1736
     81  C         49.5640   67.1600   32.4460 C.2    79  MET79       0.2616
     82  O         49.3770   65.9500   32.5410 O.2    79  MET79      -0.2715
     83  CB        48.2720   68.6960   30.9790 C.3    79  MET79       0.0427
     84  CG        47.0090   69.5020   30.7220 C.3    79  MET79       0.0599
     85  SD        45.5060   68.5260   30.9360 S.3    79  MET79      -0.1393
     86  CE        45.0710   68.9560   32.6010 C.3    79  MET79       0.0692
     87  N         50.7760   67.6970   32.3860 N.am   80  VAL80      -0.1977
     88  CA        51.9790   66.8750   32.4190 C.3    80  VAL80       0.1596
     89  C         52.0970   66.0560   33.7000 C.2    80  VAL80       0.2287
     90  O         52.2270   64.8360   33.6470 O.2    80  VAL80      -0.2864
     91  CB        53.2380   67.7380   32.2720 C.3    80  VAL80       0.0276
     92  CG1       54.4580   66.9070   32.5480 C.3    80  VAL80       0.0022
     93  CG2       53.3060   68.3180   30.8750 C.3    80  VAL80       0.0022
     94  N         49.9670   65.0660   36.4030 N.3    82  SER82      -0.1217
     95  CA        49.0320   63.9560   36.5040 C.3    82  SER82       0.1889
     96  C         49.0080   63.1800   35.1930 C.2    82  SER82       0.2288
     97  O         49.0020   63.8320   34.1270 O.2    82  SER82      -0.2866
     98  CB        47.6270   64.4720   36.8300 C.3    82  SER82       0.2089
     99  OG        47.5820   65.0600   38.1180 O.3    82  SER82      -0.2183
@<TRIPOS>BOND
     1     9    10    1
     2    14    13    1
     3    14    15    1
     4    10    13    1
     5    10    11    1
     6    15    16    2
     7    15    17   am
     8     4     3    2
     9    11    12    2
    10     3     2    1
    11     2     1    1
    12     2     5    1
    13    18    19    1
    14     5     6    1
    15    29    30    1
    16    19    20    1
    17    19    22    1
    18    20    21    2
    19    30    33    1
    20    30    31    1
    21     6     8    1
    22     6     7    1
    23    25    27   ar
    24    25    23   ar
    25    22    23    1
    26    27    28   ar
    27    23    24   ar
    28    28    26   ar
    29    24    26   ar
    30    31    32    2
    31    34    35    1
    32    42    44   ar
    33    42    40   ar
    34    44    43   ar
    35    69    67   ar
    36    69    70   ar
    37    40    39   ar
    38    67    65   ar
    39    43    41   ar
    40    35    36    1
    41    35    38    1
    42    39    41   ar
    43    39    38    1
    44    59    57    1
    45    70    68   ar
    46    84    85    1
    47    84    83    1
    48    93    91    1
    49    85    86    1
    50    83    80    1
    51    36    37    2
    52    65    64    1
    53    65    66   ar
    54    58    57    1
    55    68    66   ar
    56    57    56    1
    57    64    61    1
    58    91    88    1
    59    91    92    1
    60    87    88    1
    61    87    81   am
    62    80    81    1
    63    80    79    1
    64    62    63    2
    65    62    61    1
    66    88    89    1
    67    81    82    2
    68    50    49    1
    69    53    56    1
    70    53    52    1
    71    53    54    1
    72    61    60    1
    73    51    49    1
    74    79    73   am
    75    49    46    1
    76    90    89    2
    77    48    47    2
    78    46    47    1
    79    46    45    1
    80    54    55    2
    81    97    96    2
    82    73    74    2
    83    73    72    1
    84    71    72    1
    85    96    95    1
    86    72    75    1
    87    75    76    1
    88    94    95    1
    89    95    98    1
    90    76    77    1
    91    77    78    1
    92    98    99    1
