@<TRIPOS>MOLECULE
tmp/1wrlF02.pdb
 97 89 0 0 0
SMALL
GASTEIGER

@<TRIPOS>ATOM
      1  N         12.9840   39.4640   36.6590 N.3    39  LEU39      -0.1245
      2  CA        13.6850   38.1870   36.6800 C.3    39  LEU39       0.1561
      3  C         12.7410   37.0770   37.1220 C.2    39  LEU39       0.2260
      4  O         12.9230   35.9120   36.7590 O.2    39  LEU39      -0.2867
      5  CB        14.8730   38.2360   37.6410 C.3    39  LEU39       0.0270
      6  CG        15.5760   36.8810   37.8120 C.3    39  LEU39       0.0019
      7  CD1       16.2010   36.4710   36.4870 C.3    39  LEU39       0.0001
      8  CD2       16.6280   36.9620   38.9000 C.3    39  LEU39       0.0001
      9  N         10.2510   36.3740   34.0940 N.3    42  VAL42      -0.1231
     10  CA        10.9820   35.6110   33.0950 C.3    42  VAL42       0.1692
     11  C         11.0710   34.1370   33.4700 C.2    42  VAL42       0.2591
     12  O         10.7430   33.2590   32.6670 O.2    42  VAL42      -0.2718
     13  CB        12.4130   36.1720   32.9260 C.3    42  VAL42       0.0266
     14  CG1       13.1990   35.3190   31.9450 C.3    42  VAL42       0.0020
     15  CG2       12.3470   37.6090   32.4420 C.3    42  VAL42       0.0020
     16  N         11.5170   33.8670   34.6920 N.am   43  MET43      -0.1979
     17  CA        11.6490   32.4980   35.1590 C.3    43  MET43       0.1605
     18  C         10.3120   31.7680   35.2590 C.2    43  MET43       0.2287
     19  O         10.2340   30.5690   34.9860 O.2    43  MET43      -0.2864
     20  CB        12.3660   32.4700   36.5070 C.3    43  MET43       0.0413
     21  CG        13.8190   32.8610   36.4020 C.3    43  MET43       0.0598
     22  SD        14.7650   32.3610   37.8330 S.3    43  MET43      -0.1393
     23  CE        14.8210   30.5790   37.5820 C.3    43  MET43       0.0692
     24  N          9.1260   30.2830   32.2150 N.3    46  LEU46      -0.1245
     25  CA         9.9750   29.1800   31.7920 C.3    46  LEU46       0.1561
     26  C          9.7150   27.9650   32.6910 C.2    46  LEU46       0.2260
     27  O         10.5120   27.0310   32.7520 O.2    46  LEU46      -0.2867
     28  CB        11.4530   29.5860   31.8360 C.3    46  LEU46       0.0270
     29  CG        11.8870   30.6810   30.8530 C.3    46  LEU46       0.0019
     30  CD1       13.4040   30.7950   30.8570 C.3    46  LEU46       0.0001
     31  CD2       11.4130   30.3470   29.4550 C.3    46  LEU46       0.0001
     32  N          9.6400   27.7710   36.0000 N.3    48  GLN48      -0.1245
     33  CA        10.2060   27.7840   37.3410 C.3    48  GLN48       0.1566
     34  C          9.3470   28.5990   38.3000 C.2    48  GLN48       0.2260
     35  O          8.4040   29.2740   37.8880 O.2    48  GLN48      -0.2867
     36  CB        11.6260   28.3540   37.3070 C.3    48  GLN48       0.0367
     37  CG        12.4930   27.7880   36.1920 C.3    48  GLN48       0.0905
     38  CD        12.5340   26.2700   36.1980 C.2    48  GLN48       0.2608
     39  OE1       13.0170   25.6530   37.1480 O.2    48  GLN48      -0.2717
     40  NE2       12.0190   25.6590   35.1340 N.am   48  GLN48      -0.0878
     41  N         10.8470   30.4160   41.5970 N.3    50  PRO50      -0.2116
     42  CA        11.8030   30.7840   42.6450 C.3    50  PRO50       0.1372
     43  C         11.2340   31.7880   43.6450 C.2    50  PRO50       0.2244
     44  O         10.4020   32.6250   43.2960 O.2    50  PRO50      -0.2868
     45  CB        12.9680   31.3540   41.8510 C.3    50  PRO50       0.0268
     46  CG        12.2670   32.0330   40.7160 C.3    50  PRO50       0.0207
     47  CD        11.2290   31.0200   40.3060 C.3    50  PRO50       0.0892
     48  N         15.5620   33.6620   46.6260 N.3    54  GLU54      -0.1245
     49  CA        16.3120   32.9590   45.5880 C.3    54  GLU54       0.1567
     50  C         16.5860   33.8970   44.4160 C.2    54  GLU54       0.2260
     51  O         17.6770   33.8950   43.8510 O.2    54  GLU54      -0.2867
     52  CB        15.5170   31.7500   45.0950 C.3    54  GLU54       0.0388
     53  CG        15.2150   30.7190   46.1640 C.3    54  GLU54       0.1160
     54  CD        14.3680   29.5770   45.6410 C.2    54  GLU54       0.3649
     55  OE1       14.1120   28.6250   46.4090 O.co2  54  GLU54      -0.2457
     56  OE2       13.9560   29.6310   44.4640 O.co2  54  GLU54      -0.2457
     57  N         20.3850   35.4510   43.1710 N.3    58  MET58      -0.1245
     58  CA        20.7740   35.4100   41.7640 C.3    58  MET58       0.1570
     59  C         21.2840   36.7570   41.2640 C.2    58  MET58       0.2261
     60  O         22.2150   36.8140   40.4590 O.2    58  MET58      -0.2867
     61  CB        19.5910   34.9720   40.8970 C.3    58  MET58       0.0387
     62  CG        19.1220   33.5510   41.1510 C.3    58  MET58       0.0595
     63  SD        17.8120   33.0770   40.0130 S.3    58  MET58      -0.1393
     64  CE        18.7740   32.4770   38.6470 C.3    58  MET58       0.0692
     65  N         24.4340   41.1010   33.2640 N.3    75  PHE75      -0.1241
     66  CA        23.6650   40.0530   32.6050 C.3    75  PHE75       0.1605
     67  C         24.5470   39.0890   31.8160 C.2    75  PHE75       0.2264
     68  O         24.4020   37.8700   31.9310 O.2    75  PHE75      -0.2867
     69  CB        22.6310   40.6790   31.6660 C.3    75  PHE75       0.0534
     70  CG        21.7350   39.6760   30.9930 C.ar   75  PHE75      -0.0203
     71  CD1       20.7040   39.0560   31.6970 C.ar   75  PHE75      -0.0042
     72  CD2       21.9370   39.3260   29.6630 C.ar   75  PHE75      -0.0042
     73  CE1       19.8920   38.1110   31.0890 C.ar   75  PHE75      -0.0003
     74  CE2       21.1280   38.3770   29.0450 C.ar   75  PHE75      -0.0003
     75  CZ        20.1040   37.7660   29.7610 C.ar   75  PHE75      -0.0000
     76  N         26.2600   36.8800   34.0160 N.3    78  MET78      -0.1230
     77  CA        25.3050   35.9110   34.5330 C.3    78  MET78       0.1702
     78  C         25.0990   34.7890   33.5220 C.2    78  MET78       0.2592
     79  O         24.9200   33.6310   33.8970 O.2    78  MET78      -0.2718
     80  CB        23.9750   36.5980   34.8300 C.3    78  MET78       0.0401
     81  CG        22.9400   35.6860   35.4450 C.3    78  MET78       0.0596
     82  SD        21.4480   36.5830   35.8720 S.3    78  MET78      -0.1393
     83  CE        21.9080   37.2400   37.4560 C.3    78  MET78       0.0692
     84  N         25.1150   35.1340   32.2380 N.am   79  MET79      -0.1979
     85  CA        24.9540   34.1360   31.1900 C.3    79  MET79       0.1605
     86  C         26.2320   33.3010   31.1380 C.2    79  MET79       0.2287
     87  O         26.2010   32.1150   30.8160 O.2    79  MET79      -0.2864
     88  CB        24.7210   34.8040   29.8290 C.3    79  MET79       0.0413
     89  CG        23.4200   35.5910   29.7150 C.3    79  MET79       0.0598
     90  SD        21.9220   34.5840   29.9050 S.3    79  MET79      -0.1393
     91  CE        21.4220   35.0410   31.5310 C.3    79  MET79       0.0692
     92  N         26.5690   31.3680   35.5760 N.3    82  SER82      -0.1217
     93  CA        25.5520   30.3340   35.6310 C.3    82  SER82       0.1889
     94  C         25.4930   29.6650   34.2630 C.2    82  SER82       0.2288
     95  O         25.0130   30.3180   33.3120 O.2    82  SER82      -0.2866
     96  CB        24.1950   30.9550   35.9860 C.3    82  SER82       0.2089
     97  OG        23.2540   29.9640   36.3590 O.3    82  SER82      -0.2183
@<TRIPOS>BOND
     1    74    72   ar
     2    74    75   ar
     3    31    29    1
     4    72    70   ar
     5    89    88    1
     6    89    90    1
     7    75    73   ar
     8    88    85    1
     9    90    91    1
    10    87    86    2
    11    29    30    1
    12    29    28    1
    13    70    69    1
    14    70    71   ar
    15    73    71   ar
    16    86    85    1
    17    85    84    1
    18    69    66    1
    19    25    28    1
    20    25    24    1
    21    25    26    1
    22    67    68    2
    23    67    66    1
    24    14    13    1
    25    84    78   am
    26    15    13    1
    27    66    65    1
    28    12    11    2
    29    26    27    2
    30    13    10    1
    31    10    11    1
    32    10     9    1
    33    95    94    2
    34    11    16   am
    35    78    79    2
    36    78    77    1
    37    76    77    1
    38    94    93    1
    39    77    80    1
    40    16    17    1
    41    80    81    1
    42    19    18    2
    43    40    38   am
    44    17    18    1
    45    17    20    1
    46    81    82    1
    47    92    93    1
    48    93    96    1
    49    82    83    1
    50    96    97    1
    51    32    33    1
    52    37    38    1
    53    37    36    1
    54    38    39    2
    55    21    20    1
    56    21    22    1
    57     7     6    1
    58     1     2    1
    59     2     3    1
    60     2     5    1
    61     4     3    2
    62    36    33    1
    63    33    34    1
    64    23    22    1
    65     5     6    1
    66     6     8    1
    67    35    34    2
    68    64    63    1
    69    63    62    1
    70    47    46    1
    71    47    41    1
    72    60    59    2
    73    46    45    1
    74    61    62    1
    75    61    58    1
    76    59    58    1
    77    41    42    1
    78    58    57    1
    79    45    42    1
    80    42    43    1
    81    44    43    2
    82    51    50    2
    83    50    49    1
    84    56    54   ar
    85    52    49    1
    86    52    53    1
    87    49    48    1
    88    54    53    1
    89    54    55   ar
