@<TRIPOS>MOLECULE
tmp/1wroC01.pdb
 82 79 0 0 0
SMALL
GASTEIGER

@<TRIPOS>ATOM
      1  N         34.3210    8.8140   14.7180 N.3    87  ARG87      -0.1245
      2  CA        33.5630    7.8350   13.9570 C.3    87  ARG87       0.1563
      3  C         34.3840    7.0400   12.9230 C.2    87  ARG87       0.2260
      4  O         34.1300    7.1350   11.7240 O.2    87  ARG87      -0.2867
      5  CB        32.4050    8.5570   13.2490 C.3    87  ARG87       0.0307
      6  CG        31.3190    9.1170   14.1860 C.3    87  ARG87       0.0489
      7  CD        30.6960   10.4020   13.6210 C.3    87  ARG87       0.2205
      8  NE        31.6630   11.4990   13.6720 N.pl3  87  ARG87      -0.0865
      9  CZ        32.0290   12.2280   12.6260 C.cat  87  ARG87       0.5346
     10  NH1       31.4960   11.9910   11.4280 N.pl3  87  ARG87       0.1354
     11  NH2       32.9640   13.1610   12.7670 N.pl3  87  ARG87       0.1354
     12  N         43.5860   14.1770    8.7580 N.3    95  LEU95      -0.1231
     13  CA        42.4900   13.8790    7.8380 C.3    95  LEU95       0.1693
     14  C         41.8490   15.2080    7.4530 C.2    95  LEU95       0.2592
     15  O         40.6790   15.2830    7.0640 O.2    95  LEU95      -0.2718
     16  CB        41.4590   12.9510    8.4770 C.3    95  LEU95       0.0284
     17  CG        41.9230   11.5020    8.6590 C.3    95  LEU95       0.0019
     18  CD1       40.7470   10.6480    9.1170 C.3    95  LEU95       0.0001
     19  CD2       42.4840   10.9630    7.3410 C.3    95  LEU95       0.0001
     20  N         42.6470   16.2620    7.5820 N.am   96  LEU96      -0.1966
     21  CA        42.2550   17.6210    7.2450 C.3    96  LEU96       0.1728
     22  C         41.0020   18.0790    7.9580 C.2    96  LEU96       0.2616
     23  O         40.2060   18.8210    7.3930 O.2    96  LEU96      -0.2715
     24  CB        42.0730   17.7630    5.7300 C.3    96  LEU96       0.0311
     25  CG        42.2110   19.1720    5.1220 C.3    96  LEU96       0.0022
     26  CD1       43.6110   19.6930    5.3690 C.3    96  LEU96       0.0001
     27  CD2       41.9570   19.1450    3.6170 C.3    96  LEU96       0.0001
     28  N         40.8050   17.6320    9.1930 N.am   97  ARG97      -0.1977
     29  CA        39.6400   18.0820    9.9460 C.3    97  ARG97       0.1597
     30  C         40.0570   18.6200   11.3140 C.2    97  ARG97       0.2287
     31  O         41.1830   18.3910   11.7650 O.2    97  ARG97      -0.2864
     32  CB        38.5870   16.9650   10.0890 C.3    97  ARG97       0.0334
     33  CG        39.0150   15.7190   10.8580 C.3    97  ARG97       0.0492
     34  CD        37.8730   14.6970   10.8140 C.3    97  ARG97       0.2205
     35  NE        38.1850   13.4340   11.4780 N.pl3  97  ARG97      -0.0865
     36  CZ        37.3520   12.3950   11.5150 C.cat  97  ARG97       0.5346
     37  NH1       36.1620   12.4750   10.9290 N.pl3  97  ARG97       0.1354
     38  NH2       37.7070   11.2670   12.1210 N.pl3  97  ARG97       0.1354
     39  N         32.9030   19.5840   14.2480 N.3   128  ILE128     -0.1231
     40  CA        34.0170   18.9310   13.5870 C.3   128  ILE128      0.1692
     41  C         33.8160   19.3090   12.1290 C.2   128  ILE128      0.2593
     42  O         32.6980   19.2600   11.6200 O.2   128  ILE128     -0.2718
     43  CB        33.9850   17.3750   13.7620 C.3   128  ILE128      0.0266
     44  CG1       35.3020   16.7610   13.2610 C.3   128  ILE128      0.0019
     45  CG2       32.8070   16.7800   12.9980 C.3   128  ILE128      0.0020
     46  CD1       35.4790   15.2870   13.6070 C.3   128  ILE128      0.0001
     47  N         34.8820   19.7220   11.4590 N.am  129  GLY129     -0.1942
     48  CA        34.7450   20.0970   10.0690 C.3   129  GLY129      0.2014
     49  C         36.0550   20.6030    9.5270 C.2   129  GLY129      0.2638
     50  O         37.0920   20.4170   10.1620 O.2   129  GLY129     -0.2714
     51  N         36.0230   21.2420    8.3640 N.am  130  ALA130     -0.1977
     52  CA        37.2440   21.7660    7.7620 C.3   130  ALA130      0.1597
     53  C         37.9130   22.8260    8.6430 C.2   130  ALA130      0.2287
     54  O         37.3570   23.2600    9.6510 O.2   130  ALA130     -0.2864
     55  CB        36.9310   22.3520    6.3990 C.3   130  ALA130      0.0319
     56  N         32.2750   25.8370    8.0150 N.3   135  LEU135     -0.1231
     57  CA        32.3130   24.5670    7.3110 C.3   135  LEU135      0.1693
     58  C         32.4180   23.4320    8.3170 C.2   135  LEU135      0.2592
     59  O         33.4890   22.8850    8.5400 O.2   135  LEU135     -0.2718
     60  CB        33.5000   24.5270    6.3570 C.3   135  LEU135      0.0284
     61  CG        33.4960   25.6240    5.2920 C.3   135  LEU135      0.0019
     62  CD1       34.8400   25.6630    4.5840 C.3   135  LEU135      0.0001
     63  CD2       32.3690   25.3780    4.2990 C.3   135  LEU135      0.0001
     64  N         31.2990   23.0730    8.9300 N.am  136  GLU136     -0.1966
     65  CA        31.3210   21.9940    9.9070 C.3   136  GLU136      0.1733
     66  C         29.9220   21.6480   10.3870 C.2   136  GLU136      0.2616
     67  O         28.9390   22.2780    9.9970 O.2   136  GLU136     -0.2715
     68  CB        32.1880   22.3980   11.1090 C.3   136  GLU136      0.0429
     69  CG        31.4980   23.3010   12.1360 C.3   136  GLU136      0.1163
     70  CD        32.0590   24.7200   12.1990 C.2   136  GLU136      0.3649
     71  OE1       33.1930   24.9550   11.7270 O.co2 136  GLU136     -0.2457
     72  OE2       31.3640   25.6050   12.7450 O.co2 136  GLU136     -0.2457
     73  N         29.8350   20.6270   11.2240 N.am  137  HIS137     -0.1973
     74  CA        28.5630   20.2460   11.8030 C.3   137  HIS137      0.1656
     75  C         28.8780   19.7160   13.1920 C.2   137  HIS137      0.2291
     76  O         30.0380   19.6780   13.5800 O.2   137  HIS137     -0.2864
     77  CB        27.8440   19.2050   10.9440 C.3   137  HIS137      0.0771
     78  CG        28.5660   17.9070   10.8460 C.ar  137  HIS137      0.0820
     79  ND1       28.7620   17.0850   11.9340 N.ar  137  HIS137     -0.2267
     80  CD2       29.1520   17.2920    9.7960 C.ar  137  HIS137      0.1154
     81  CE1       29.4390   16.0180   11.5590 C.ar  137  HIS137      0.1986
     82  NE2       29.6870   16.1190   10.2670 N.ar  137  HIS137     -0.2212
@<TRIPOS>BOND
     1    27    25    1
     2    63    61    1
     3    62    61    1
     4    25    26    1
     5    25    24    1
     6    61    60    1
     7    24    21    1
     8    60    57    1
     9    55    52    1
    10    15    14    2
    11    21    20    1
    12    21    22    1
    13    57    56    1
    14    57    58    1
    15    19    17    1
    16    23    22    2
    17    14    20   am
    18    14    13    1
    19    52    51    1
    20    52    53    1
    21    13    16    1
    22    13    12    1
    23    22    28   am
    24    58    59    2
    25    58    64   am
    26    51    49   am
    27    16    17    1
    28    53    54    2
    29    17    18    1
    30    64    65    1
    31    28    29    1
    32    49    48    1
    33    49    50    2
    34    80    82   ar
    35    80    78   ar
    36    65    66    1
    37    65    68    1
    38    29    32    1
    39    29    30    1
    40    67    66    2
    41    48    47    1
    42    32    33    1
    43    82    81   ar
    44    66    73   am
    45    34    33    1
    46    34    35    1
    47    78    77    1
    48    78    79   ar
    49    37    36    1
    50    77    74    1
    51    68    69    1
    52    73    74    1
    53    30    31    2
    54    10     9    1
    55    47    41   am
    56    35    36    2
    57    36    38    1
    58    81    79   ar
    59    42    41    2
    60     4     3    2
    61    71    70   ar
    62    74    75    1
    63    41    40    1
    64    69    70    1
    65    70    72   ar
    66     9    11    1
    67     9     8    2
    68     3     2    1
    69    45    43    1
    70    75    76    2
    71     5     2    1
    72     5     6    1
    73    44    46    1
    74    44    43    1
    75    40    43    1
    76    40    39    1
    77     7     8    1
    78     7     6    1
    79     2     1    1
