@<TRIPOS>MOLECULE
tmp/1wrvB01.pdb
 96 90 0 0 0
SMALL
GASTEIGER

@<TRIPOS>ATOM
      1  N         62.0320   67.1880   31.8580 N.3    35  PHE35      -0.1241
      2  CA        62.3450   66.3390   32.9940 C.3    35  PHE35       0.1605
      3  C         61.1440   66.1470   33.8980 C.2    35  PHE35       0.2264
      4  O         60.0920   66.7530   33.6990 O.2    35  PHE35      -0.2867
      5  CB        63.5050   66.9530   33.7960 C.3    35  PHE35       0.0534
      6  CG        63.1620   68.2620   34.4680 C.ar   35  PHE35      -0.0203
      7  CD1       62.5710   68.2800   35.7280 C.ar   35  PHE35      -0.0042
      8  CD2       63.4160   69.4730   33.8320 C.ar   35  PHE35      -0.0042
      9  CE1       62.2340   69.4860   36.3470 C.ar   35  PHE35      -0.0003
     10  CE2       63.0820   70.6860   34.4440 C.ar   35  PHE35      -0.0003
     11  CZ        62.4910   70.6910   35.7010 C.ar   35  PHE35      -0.0000
     12  N         60.1050   65.0660   38.2630 N.3    37  GLY37      -0.1225
     13  CA        60.5530   64.9220   39.6340 C.3    37  GLY37       0.1811
     14  C         59.6220   63.8750   40.1990 C.2    37  GLY37       0.2280
     15  O         58.4210   64.1140   40.3350 O.2    37  GLY37      -0.2866
     16  N         64.8190   60.2500   45.4010 N.3    94  TYR94      -0.1241
     17  CA        64.2950   61.1930   44.4150 C.3    94  TYR94       0.1605
     18  C         64.6910   60.6420   43.0500 C.2    94  TYR94       0.2264
     19  O         65.8350   60.2260   42.8560 O.2    94  TYR94      -0.2867
     20  CB        64.9220   62.5700   44.6070 C.3    94  TYR94       0.0534
     21  CG        64.3650   63.6300   43.6820 C.ar   94  TYR94      -0.0201
     22  CD1       63.1040   64.1870   43.9030 C.ar   94  TYR94      -0.0009
     23  CD2       65.1020   64.0800   42.5850 C.ar   94  TYR94      -0.0009
     24  CE1       62.5910   65.1720   43.0540 C.ar   94  TYR94       0.0417
     25  CE2       64.5990   65.0610   41.7290 C.ar   94  TYR94       0.0417
     26  CZ        63.3470   65.6020   41.9710 C.ar   94  TYR94       0.1957
     27  OH        62.8590   66.5830   41.1400 O.3    94  TYR94      -0.2866
     28  N         64.8860   61.3200   38.8690 N.3    96  ARG96      -0.1245
     29  CA        64.9120   62.3650   37.8560 C.3    96  ARG96       0.1563
     30  C         65.0450   61.8870   36.4150 C.2    96  ARG96       0.2260
     31  O         66.1490   61.6100   35.9350 O.2    96  ARG96      -0.2867
     32  CB        66.0420   63.3550   38.1900 C.3    96  ARG96       0.0307
     33  CG        66.3790   64.3840   37.1030 C.3    96  ARG96       0.0489
     34  CD        65.1760   65.2430   36.7130 C.3    96  ARG96       0.2205
     35  NE        64.6400   66.0430   37.8190 N.pl3  96  ARG96      -0.0865
     36  CZ        65.0730   67.2540   38.1610 C.cat  96  ARG96       0.5346
     37  NH1       66.0580   67.8320   37.4920 N.pl3  96  ARG96       0.1354
     38  NH2       64.5060   67.9000   39.1740 N.pl3  96  ARG96       0.1354
     39  N         57.4260   70.7050   31.7700 N.3   158  LYS158     -0.1245
     40  CA        58.6390   70.8030   32.5600 C.3   158  LYS158      0.1561
     41  C         59.7970   70.8360   31.5610 C.2   158  LYS158      0.2260
     42  O         60.5470   69.8700   31.4110 O.2   158  LYS158     -0.2867
     43  CB        58.7560   69.6040   33.5070 C.3   158  LYS158      0.0271
     44  CG        58.5310   69.9430   34.9740 C.3   158  LYS158      0.0035
     45  CD        58.3180   68.6890   35.8210 C.3   158  LYS158      0.0206
     46  CE        58.5950   68.9360   37.3040 C.3   158  LYS158      0.1093
     47  NZ        57.9730   70.1830   37.7690 N.3   158  LYS158     -0.1314
     48  N         63.1820   76.8800   33.4420 N.3   163  TYR163     -0.1241
     49  CA        63.7360   77.0980   34.7630 C.3   163  TYR163      0.1605
     50  C         64.7720   78.1850   34.9640 C.2   163  TYR163      0.2264
     51  O         65.2640   78.3830   36.0700 O.2   163  TYR163     -0.2867
     52  CB        64.1520   75.7390   35.3380 C.3   163  TYR163      0.0534
     53  CG        62.9080   74.8890   35.4220 C.ar  163  TYR163     -0.0201
     54  CD1       62.4000   74.2690   34.2810 C.ar  163  TYR163     -0.0009
     55  CD2       62.1090   74.8950   36.5710 C.ar  163  TYR163     -0.0009
     56  CE1       61.1320   73.7040   34.2670 C.ar  163  TYR163      0.0417
     57  CE2       60.8300   74.3260   36.5670 C.ar  163  TYR163      0.0417
     58  CZ        60.3480   73.7420   35.4050 C.ar  163  TYR163      0.1957
     59  OH        59.0610   73.2620   35.3470 O.3   163  TYR163     -0.2866
     60  N         62.7340   80.3260   36.9290 N.3   166  SER166     -0.1217
     61  CA        62.6580   79.8160   38.2940 C.3   166  SER166      0.1889
     62  C         63.9560   80.0480   39.0640 C.2   166  SER166      0.2288
     63  O         63.9350   80.4060   40.2450 O.2   166  SER166     -0.2866
     64  CB        62.3360   78.3240   38.2780 C.3   166  SER166      0.2089
     65  OG        61.0210   78.1150   37.8060 O.3   166  SER166     -0.2183
     66  N         58.7610   79.1390   42.7500 N.3   194  SER194     -0.1202
     67  CA        59.7290   78.8100   41.7090 C.3   194  SER194      0.2020
     68  C         59.4870   77.3850   41.2080 C.2   194  SER194      0.2619
     69  O         59.8340   77.0460   40.0750 O.2   194  SER194     -0.2717
     70  CB        61.1660   78.9640   42.2290 C.3   194  SER194      0.2103
     71  OG        61.4700   78.0040   43.2270 O.3   194  SER194     -0.2182
     72  N         58.8770   76.5550   42.0490 N.am  195  GLY195     -0.1942
     73  CA        58.5850   75.1920   41.6440 C.3   195  GLY195      0.2014
     74  C         57.5100   74.5570   42.5040 C.2   195  GLY195      0.2638
     75  O         57.4950   73.3370   42.7000 O.2   195  GLY195     -0.2714
     76  N         56.6000   75.3840   43.0120 N.am  196  GLU196     -0.1977
     77  CA        55.5230   74.9020   43.8730 C.3   196  GLU196      0.1602
     78  C         54.2110   75.6090   43.5700 C.2   196  GLU196      0.2287
     79  O         54.2000   76.8040   43.3010 O.2   196  GLU196     -0.2864
     80  CB        55.8450   75.1650   45.3480 C.3   196  GLU196      0.0415
     81  CG        57.1760   74.6490   45.8570 C.3   196  GLU196      0.1163
     82  CD        58.2750   75.6900   45.7940 C.2   196  GLU196      0.3649
     83  OE1       59.2800   75.5300   46.5230 O.co2 196  GLU196     -0.2457
     84  OE2       58.1540   76.6640   45.0220 O.co2 196  GLU196     -0.2457
     85  N         56.4390   68.0320   44.4510 N.3   255  THR255     -0.1203
     86  CA        56.9690   66.7250   44.7950 C.3   255  THR255      0.1994
     87  C         58.0360   66.8240   45.8900 C.2   255  THR255      0.2617
     88  O         58.0290   66.0360   46.8370 O.2   255  THR255     -0.2717
     89  CB        57.5130   66.0190   43.5340 C.3   255  THR255      0.1784
     90  OG1       56.4070   65.6650   42.6890 O.3   255  THR255     -0.2211
     91  CG2       58.2780   64.7530   43.9040 C.3   255  THR255      0.0376
     92  N         58.9310   67.8020   45.7750 N.am  256  ALA256     -0.1979
     93  CA        59.9830   67.9950   46.7710 C.3   256  ALA256      0.1597
     94  C         59.4410   68.6400   48.0440 C.2   256  ALA256      0.2287
     95  O         59.7870   68.2280   49.1530 O.2   256  ALA256     -0.2864
     96  CB        61.0970   68.8630   46.1950 C.3   256  ALA256      0.0319
@<TRIPOS>BOND
     1    42    41    2
     2    41    40    1
     3    39    40    1
     4     1     2    1
     5    40    43    1
     6     2     5    1
     7     2     3    1
     8    48    49    1
     9    43    44    1
    10     4     3    2
    11     5     6    1
    12     8    10   ar
    13     8     6   ar
    14    56    54   ar
    15    56    58   ar
    16    54    53   ar
    17    10    11   ar
    18     6     7   ar
    19    49    50    1
    20    49    52    1
    21    50    51    2
    22    44    45    1
    23    52    53    1
    24    59    58    1
    25    58    57   ar
    26    53    55   ar
    27    11     9   ar
    28     7     9   ar
    29    45    46    1
    30    31    30    2
    31    30    29    1
    32    57    55   ar
    33    34    33    1
    34    34    35    1
    35    60    61    1
    36    33    32    1
    37    46    47    1
    38    37    36    1
    39    65    64    1
    40    35    36    2
    41    29    32    1
    42    29    28    1
    43    36    38    1
    44    12    13    1
    45    64    61    1
    46    61    62    1
    47    62    63    2
    48    13    14    1
    49    69    68    2
    50    14    15    2
    51    27    26    1
    52    68    67    1
    53    68    72   am
    54    73    72    1
    55    73    74    1
    56    67    70    1
    57    67    66    1
    58    25    26   ar
    59    25    23   ar
    60    26    24   ar
    61    70    71    1
    62    74    75    2
    63    74    76   am
    64    23    21   ar
    65    90    89    1
    66    19    18    2
    67    76    77    1
    68    18    17    1
    69    24    22   ar
    70    79    78    2
    71    89    91    1
    72    89    86    1
    73    78    77    1
    74    21    22   ar
    75    21    20    1
    76    77    80    1
    77    17    20    1
    78    17    16    1
    79    85    86    1
    80    86    87    1
    81    84    82   ar
    82    80    81    1
    83    92    87   am
    84    92    93    1
    85    82    81    1
    86    82    83   ar
    87    87    88    2
    88    96    93    1
    89    93    94    1
    90    94    95    2
