@<TRIPOS>MOLECULE
tmp/1wrvB00.pdb
 149 140 0 0 0
SMALL
GASTEIGER

@<TRIPOS>ATOM
      1  N         60.1050   65.0660   38.2630 N.3    37  GLY37      -0.1225
      2  CA        60.5530   64.9220   39.6340 C.3    37  GLY37       0.1811
      3  C         59.6220   63.8750   40.1990 C.2    37  GLY37       0.2280
      4  O         58.4210   64.1140   40.3350 O.2    37  GLY37      -0.2866
      5  N         53.1990   60.9820   36.3260 N.3    55  HIS55      -0.1241
      6  CA        54.4460   61.6900   36.0590 C.3    55  HIS55       0.1621
      7  C         55.0230   61.3420   34.6900 C.2    55  HIS55       0.2264
      8  O         55.5450   62.2090   33.9950 O.2    55  HIS55      -0.2867
      9  CB        55.4920   61.3840   37.1430 C.3    55  HIS55       0.0745
     10  CG        55.4090   62.2910   38.3300 C.ar   55  HIS55       0.0817
     11  ND1       54.8350   61.9130   39.5250 N.ar   55  HIS55      -0.2268
     12  CD2       55.8090   63.5750   38.4940 C.ar   55  HIS55       0.1154
     13  CE1       54.8840   62.9260   40.3730 C.ar   55  HIS55       0.1986
     14  NE2       55.4690   63.9460   39.7710 N.ar   55  HIS55      -0.2212
     15  N         53.0940   63.0350   32.0160 N.3    58  ARG58      -0.1245
     16  CA        53.4930   64.4330   31.8910 C.3    58  ARG58       0.1563
     17  C         54.8320   64.5690   31.1760 C.2    58  ARG58       0.2260
     18  O         55.0460   65.5160   30.4290 O.2    58  ARG58      -0.2867
     19  CB        53.5540   65.1130   33.2640 C.3    58  ARG58       0.0307
     20  CG        53.6730   66.6300   33.1590 C.3    58  ARG58       0.0489
     21  CD        53.3720   67.3080   34.4830 C.3    58  ARG58       0.2205
     22  NE        54.3840   67.0080   35.4930 N.pl3  58  ARG58      -0.0865
     23  CZ        54.2480   67.2830   36.7860 C.cat  58  ARG58       0.5346
     24  NH1       53.1400   67.8650   37.2280 N.pl3  58  ARG58       0.1354
     25  NH2       55.2180   66.9720   37.6350 N.pl3  58  ARG58       0.1354
     26  N         56.2990   85.0470   36.1400 N.3   147  ARG147     -0.1245
     27  CA        56.2640   83.7680   35.4410 C.3   147  ARG147      0.1563
     28  C         55.8410   84.0910   34.0090 C.2   147  ARG147      0.2260
     29  O         54.9500   84.9110   33.7790 O.2   147  ARG147     -0.2867
     30  CB        55.2820   82.7750   36.0810 C.3   147  ARG147      0.0307
     31  CG        55.3710   81.3770   35.4250 C.3   147  ARG147      0.0489
     32  CD        54.7390   80.2670   36.2590 C.3   147  ARG147      0.2205
     33  NE        54.6630   79.0010   35.5230 N.pl3 147  ARG147     -0.0865
     34  CZ        55.6600   78.1300   35.3600 C.cat 147  ARG147      0.5346
     35  NH1       56.8590   78.3530   35.8870 N.pl3 147  ARG147      0.1354
     36  NH2       55.4550   77.0260   34.6510 N.pl3 147  ARG147      0.1354
     37  N         57.4260   70.7050   31.7700 N.3   158  LYS158     -0.1245
     38  CA        58.6390   70.8030   32.5600 C.3   158  LYS158      0.1561
     39  C         59.7970   70.8360   31.5610 C.2   158  LYS158      0.2260
     40  O         60.5470   69.8700   31.4110 O.2   158  LYS158     -0.2867
     41  CB        58.7560   69.6040   33.5070 C.3   158  LYS158      0.0271
     42  CG        58.5310   69.9430   34.9740 C.3   158  LYS158      0.0035
     43  CD        58.3180   68.6890   35.8210 C.3   158  LYS158      0.0206
     44  CE        58.5950   68.9360   37.3040 C.3   158  LYS158      0.1093
     45  NZ        57.9730   70.1830   37.7690 N.3   158  LYS158     -0.1314
     46  N         63.1820   76.8800   33.4420 N.3   163  TYR163     -0.1241
     47  CA        63.7360   77.0980   34.7630 C.3   163  TYR163      0.1605
     48  C         64.7720   78.1850   34.9640 C.2   163  TYR163      0.2264
     49  O         65.2640   78.3830   36.0700 O.2   163  TYR163     -0.2867
     50  CB        64.1520   75.7390   35.3380 C.3   163  TYR163      0.0534
     51  CG        62.9080   74.8890   35.4220 C.ar  163  TYR163     -0.0201
     52  CD1       62.4000   74.2690   34.2810 C.ar  163  TYR163     -0.0009
     53  CD2       62.1090   74.8950   36.5710 C.ar  163  TYR163     -0.0009
     54  CE1       61.1320   73.7040   34.2670 C.ar  163  TYR163      0.0417
     55  CE2       60.8300   74.3260   36.5670 C.ar  163  TYR163      0.0417
     56  CZ        60.3480   73.7420   35.4050 C.ar  163  TYR163      0.1957
     57  OH        59.0610   73.2620   35.3470 O.3   163  TYR163     -0.2866
     58  N         52.7940   81.2580   40.9700 N.3   192  GLU192     -0.1245
     59  CA        53.2210   80.1440   41.8030 C.3   192  GLU192      0.1567
     60  C         54.6380   80.3530   42.3140 C.2   192  GLU192      0.2260
     61  O         55.2660   81.3730   42.0310 O.2   192  GLU192     -0.2867
     62  CB        53.1540   78.8300   41.0160 C.3   192  GLU192      0.0388
     63  CG        54.0350   78.7670   39.7780 C.3   192  GLU192      0.1160
     64  CD        54.2660   77.3370   39.3270 C.2   192  GLU192      0.3649
     65  OE1       54.7500   76.5400   40.1570 O.co2 192  GLU192     -0.2457
     66  OE2       53.9710   77.0030   38.1620 O.co2 192  GLU192     -0.2457
     67  N         58.7610   79.1390   42.7500 N.3   194  SER194     -0.1202
     68  CA        59.7290   78.8100   41.7090 C.3   194  SER194      0.2020
     69  C         59.4870   77.3850   41.2080 C.2   194  SER194      0.2619
     70  O         59.8340   77.0460   40.0750 O.2   194  SER194     -0.2717
     71  CB        61.1660   78.9640   42.2290 C.3   194  SER194      0.2103
     72  OG        61.4700   78.0040   43.2270 O.3   194  SER194     -0.2182
     73  N         58.8770   76.5550   42.0490 N.am  195  GLY195     -0.1942
     74  CA        58.5850   75.1920   41.6440 C.3   195  GLY195      0.2014
     75  C         57.5100   74.5570   42.5040 C.2   195  GLY195      0.2639
     76  O         57.4950   73.3370   42.7000 O.2   195  GLY195     -0.2714
     77  N         56.6000   75.3840   43.0120 N.am  196  GLU196     -0.1963
     78  CA        55.5230   74.9020   43.8730 C.3   196  GLU196      0.1733
     79  C         54.2110   75.6090   43.5700 C.2   196  GLU196      0.2616
     80  O         54.2000   76.8040   43.3010 O.2   196  GLU196     -0.2715
     81  CB        55.8450   75.1650   45.3480 C.3   196  GLU196      0.0429
     82  CG        57.1760   74.6490   45.8570 C.3   196  GLU196      0.1163
     83  CD        58.2750   75.6900   45.7940 C.2   196  GLU196      0.3649
     84  OE1       59.2800   75.5300   46.5230 O.co2 196  GLU196     -0.2457
     85  OE2       58.1540   76.6640   45.0220 O.co2 196  GLU196     -0.2457
     86  N         53.1060   74.8710   43.6360 N.am  197  ASN197     -0.1972
     87  CA        51.7910   75.4650   43.4120 C.3   197  ASN197      0.1688
     88  C         51.3270   76.0580   44.7380 C.2   197  ASN197      0.2292
     89  O         51.7370   75.6020   45.8040 O.2   197  ASN197     -0.2864
     90  CB        50.7930   74.4100   42.9300 C.3   197  ASN197      0.1181
     91  CG        51.1060   73.9080   41.5360 C.2   197  ASN197      0.2629
     92  OD1       51.2720   72.7120   41.3200 O.2   197  ASN197     -0.2716
     93  ND2       51.1880   74.8240   40.5810 N.am  197  ASN197     -0.0877
     94  N         52.3420   75.3150   36.2910 N.3   215  LEU215     -0.1245
     95  CA        52.3910   73.9190   35.9040 C.3   215  LEU215      0.1561
     96  C         51.2650   73.2460   36.6800 C.2   215  LEU215      0.2260
     97  O         50.9640   73.6470   37.8040 O.2   215  LEU215     -0.2867
     98  CB        53.7270   73.2940   36.3060 C.3   215  LEU215      0.0270
     99  CG        53.9460   71.9260   35.6580 C.3   215  LEU215      0.0019
    100  CD1       54.8360   72.0980   34.4490 C.3   215  LEU215      0.0001
    101  CD2       54.5600   70.9630   36.6380 C.3   215  LEU215      0.0001
    102  N         50.4480   70.8860   38.9160 N.3   217  GLY217     -0.1210
    103  CA        51.0860   69.9860   39.8540 C.3   217  GLY217      0.1956
    104  C         50.3220   68.7410   40.2460 C.2   217  GLY217      0.2612
    105  O         49.1130   68.7730   40.4720 O.2   217  GLY217     -0.2717
    106  N         51.0460   67.6340   40.3280 N.am  218  ILE218     -0.1965
    107  CA        50.4660   66.3640   40.7230 C.3   218  ILE218      0.1727
    108  C         50.2540   66.3690   42.2400 C.2   218  ILE218      0.2617
    109  O         49.3340   65.7320   42.7450 O.2   218  ILE218     -0.2715
    110  CB        51.3880   65.1980   40.2780 C.3   218  ILE218      0.0290
    111  CG1       51.2830   65.0350   38.7530 C.3   218  ILE218      0.0022
    112  CG2       51.0060   63.9110   40.9920 C.3   218  ILE218      0.0023
    113  CD1       52.3190   64.0990   38.1370 C.3   218  ILE218      0.0001
    114  N         51.0990   67.1000   42.9630 N.am  219  THR219     -0.1937
    115  CA        50.9470   67.1920   44.4130 C.3   219  THR219      0.2028
    116  C         49.7120   68.0540   44.6750 C.2   219  THR219      0.2642
    117  O         48.9100   67.7590   45.5570 O.2   219  THR219     -0.2714
    118  CB        52.1900   67.8340   45.0700 C.3   219  THR219      0.1808
    119  OG1       53.3740   67.1950   44.5690 O.3   219  THR219     -0.2208
    120  CG2       52.1390   67.6610   46.5920 C.3   219  THR219      0.0379
    121  N         49.5600   69.1160   43.8890 N.am  220  ARG220     -0.1977
    122  CA        48.4020   70.0030   44.0010 C.3   220  ARG220      0.1597
    123  C         47.1370   69.1690   43.8020 C.2   220  ARG220      0.2287
    124  O         46.1910   69.2600   44.5840 O.2   220  ARG220     -0.2864
    125  CB        48.4670   71.0920   42.9250 C.3   220  ARG220      0.0334
    126  CG        47.2040   71.9420   42.7950 C.3   220  ARG220      0.0492
    127  CD        47.3140   72.8630   41.5820 C.3   220  ARG220      0.2205
    128  NE        46.1470   73.7260   41.4000 N.pl3 220  ARG220     -0.0865
    129  CZ        44.9960   73.3480   40.8520 C.cat 220  ARG220      0.5346
    130  NH1       44.8340   72.1070   40.4120 N.pl3 220  ARG220      0.1354
    131  NH2       43.9930   74.2130   40.7700 N.pl3 220  ARG220      0.1354
    132  N         52.5550   73.3230   47.3800 N.3   253  THR253     -0.1203
    133  CA        52.7300   71.9050   47.1080 C.3   253  THR253      0.1994
    134  C         53.7000   71.6540   45.9630 C.2   253  THR253      0.2618
    135  O         53.8340   72.4710   45.0530 O.2   253  THR253     -0.2717
    136  CB        51.3900   71.2560   46.7330 C.3   253  THR253      0.1784
    137  OG1       50.8890   71.8730   45.5440 O.3   253  THR253     -0.2211
    138  CG2       50.3700   71.4380   47.8490 C.3   253  THR253      0.0376
    139  N         54.3550   70.5010   46.0200 N.am  254  GLY254     -0.1942
    140  CA        55.2980   70.1090   44.9940 C.3   254  GLY254      0.2014
    141  C         55.8500   68.7580   45.3900 C.2   254  GLY254      0.2639
    142  O         55.7460   68.3670   46.5490 O.2   254  GLY254     -0.2714
    143  N         56.4390   68.0320   44.4510 N.am  255  THR255     -0.1950
    144  CA        56.9690   66.7250   44.7950 C.3   255  THR255      0.1897
    145  C         58.0360   66.8240   45.8900 C.2   255  THR255      0.2313
    146  O         58.0290   66.0360   46.8370 O.2   255  THR255     -0.2863
    147  CB        57.5130   66.0190   43.5340 C.3   255  THR255      0.1794
    148  OG1       56.4070   65.6650   42.6890 O.3   255  THR255     -0.2208
    149  CG2       58.2780   64.7530   43.9040 C.3   255  THR255      0.0378
@<TRIPOS>BOND
     1    18    17    2
     2    17    16    1
     3    40    39    2
     4    39    38    1
     5    37    38    1
     6    16    15    1
     7    16    19    1
     8    38    41    1
     9    20    19    1
    10    20    21    1
    11    46    47    1
    12    41    42    1
    13    29    28    2
    14     8     7    2
    15    28    27    1
    16    54    52   ar
    17    54    56   ar
    18    52    51   ar
    19   100    99    1
    20    21    22    1
    21    36    34    1
    22     7     6    1
    23    47    48    1
    24    47    50    1
    25    48    49    2
    26    42    43    1
    27    50    51    1
    28    57    56    1
    29    34    33    2
    30    34    35    1
    31    56    55   ar
    32    51    53   ar
    33    31    30    1
    34    31    32    1
    35    27    30    1
    36    27    26    1
    37    22    23    2
    38    33    32    1
    39    99    98    1
    40    99   101    1
    41    43    44    1
    42    95    94    1
    43    95    98    1
    44    95    96    1
    45     6     5    1
    46     6     9    1
    47    55    53   ar
    48    96    97    2
    49    23    24    1
    50    23    25    1
    51     9    10    1
    52    44    45    1
    53   113   111    1
    54    66    64   ar
    55     1     2    1
    56    10    12   ar
    57    10    11   ar
    58    12    14   ar
    59   111   110    1
    60   102   103    1
    61    64    63    1
    62    64    65   ar
    63    11    13   ar
    64     2     3    1
    65    14    13   ar
    66    63    62    1
    67   103   104    1
    68    70    69    2
    69     3     4    2
    70   104   106   am
    71   104   105    2
    72   110   107    1
    73   110   112    1
    74   106   107    1
    75   130   129    1
    76    93    91   am
    77   107   108    1
    78   131   129    1
    79   129   128    2
    80    58    59    1
    81    62    59    1
    82    69    68    1
    83    69    73   am
    84    92    91    2
    85   128   127    1
    86    91    90    1
    87   127   126    1
    88    74    73    1
    89    74    75    1
    90    68    71    1
    91    68    67    1
    92    59    60    1
    93    61    60    2
    94    71    72    1
    95   108   109    2
    96   108   114   am
    97    75    76    2
    98    75    77   am
    99   148   147    1
   100   126   125    1
   101   125   122    1
   102    90    87    1
   103   114   115    1
   104    77    78    1
   105    80    79    2
   106    87    86    1
   107    87    88    1
   108   147   149    1
   109   147   144    1
   110    79    86   am
   111    79    78    1
   112   123   122    1
   113   123   124    2
   114    78    81    1
   115   121   122    1
   116   121   116   am
   117   115   116    1
   118   115   118    1
   119   143   144    1
   120   143   141   am
   121   119   118    1
   122   116   117    2
   123    88    89    2
   124   144   145    1
   125   140   141    1
   126   140   139    1
   127    85    83   ar
   128   135   134    2
   129   118   120    1
   130    81    82    1
   131   141   142    2
   132   137   136    1
   133    83    82    1
   134    83    84   ar
   135   145   146    2
   136   134   139   am
   137   134   133    1
   138   136   133    1
   139   136   138    1
   140   133   132    1
