@<TRIPOS>MOLECULE
tmp/1ws1A00.pdb
 139 136 0 0 0
SMALL
GASTEIGER

@<TRIPOS>ATOM
      1  N         -0.5110   48.8940   62.1680 N.3    42  ALA42      -0.1231
      2  CA        -1.2530   49.6180   61.1250 C.3    42  ALA42       0.1694
      3  C         -2.7380   49.2670   61.1480 C.2    42  ALA42       0.2592
      4  O         -3.4520   49.6750   60.2330 O.2    42  ALA42      -0.2718
      5  CB        -0.6710   49.3040   59.6980 C.3    42  ALA42       0.0304
      6  N         -3.2090   48.5660   62.1840 N.am   43  ASP43      -0.1960
      7  CA        -4.6370   48.1850   62.2860 C.3    43  ASP43       0.1840
      8  C         -5.1680   47.2370   61.2210 C.2    43  ASP43       0.2623
      9  O         -6.3650   47.2740   60.9110 O.2    43  ASP43      -0.2715
     10  CB        -5.5620   49.4240   62.2740 C.3    43  ASP43       0.1450
     11  CG        -5.2450   50.3830   63.3830 C.2    43  ASP43       0.3671
     12  OD1       -5.1700   49.9490   64.5480 O.co2  43  ASP43      -0.2456
     13  OD2       -5.0600   51.5900   63.0930 O.co2  43  ASP43      -0.2456
     14  N         -4.3130   46.4190   60.6220 N.am   44  GLY44      -0.1940
     15  CA        -4.7710   45.4720   59.5830 C.3    44  GLY44       0.2014
     16  C         -5.1800   44.1580   60.2560 C.2    44  GLY44       0.2639
     17  O         -4.8720   43.9970   61.4390 O.2    44  GLY44      -0.2714
     18  N         -5.9520   43.2990   59.5730 N.am   45  VAL45      -0.1963
     19  CA        -6.2850   41.9950   60.1030 C.3    45  VAL45       0.1727
     20  C         -5.4870   40.9760   59.2630 C.2    45  VAL45       0.2616
     21  O         -5.4790   39.7970   59.5260 O.2    45  VAL45      -0.2715
     22  CB        -7.8460   41.6960   60.0910 C.3    45  VAL45       0.0290
     23  CG1       -8.5470   42.6820   61.0440 C.3    45  VAL45       0.0023
     24  CG2       -8.4330   41.8590   58.7240 C.3    45  VAL45       0.0023
     25  N         -4.7840   41.4610   58.2660 N.am   46  GLY46      -0.1955
     26  CA        -3.9450   40.5950   57.4520 C.3    46  GLY46       0.1869
     27  C         -2.8210   41.4010   56.7670 C.2    46  GLY46       0.2309
     28  O         -2.8460   42.6390   56.7590 O.2    46  GLY46      -0.2863
     29  N          3.1610   43.2840   49.9830 N.3    51  GLN51      -0.1245
     30  CA         2.8720   44.6030   50.5640 C.3    51  GLN51       0.1566
     31  C          4.1100   45.1670   51.3360 C.2    51  GLN51       0.2260
     32  O          4.1380   46.3660   51.6790 O.2    51  GLN51      -0.2867
     33  CB         1.6320   44.5290   51.4650 C.3    51  GLN51       0.0367
     34  CG         0.3220   44.3020   50.6590 C.3    51  GLN51       0.0905
     35  CD        -0.9040   44.0790   51.5700 C.2    51  GLN51       0.2608
     36  OE1       -1.0760   42.9970   52.1510 O.2    51  GLN51      -0.2717
     37  NE2       -1.7310   45.1180   51.7300 N.am   51  GLN51      -0.0878
     38  N        -17.9580   44.7260   52.7280 N.3    87  PRO87      -0.2102
     39  CA       -16.9820   45.7960   52.6200 C.3    87  PRO87       0.1504
     40  C        -15.5510   45.3110   52.8390 C.2    87  PRO87       0.2576
     41  O        -15.3020   44.5230   53.7360 O.2    87  PRO87      -0.2718
     42  CB       -17.4080   46.7720   53.7130 C.3    87  PRO87       0.0282
     43  CG       -17.9030   45.8450   54.8040 C.3    87  PRO87       0.0208
     44  CD       -18.7130   44.8140   53.9930 C.3    87  PRO87       0.0893
     45  N        -14.6430   45.7760   51.9880 N.am   88  GLU88      -0.1966
     46  CA       -13.2250   45.4650   52.1240 C.3    88  GLU88       0.1733
     47  C        -12.4270   46.7040   51.8750 C.2    88  GLU88       0.2617
     48  O        -12.8340   47.5470   51.0350 O.2    88  GLU88      -0.2715
     49  CB       -12.7150   44.4340   51.0820 C.3    88  GLU88       0.0429
     50  CG       -13.0690   43.0700   51.4050 C.3    88  GLU88       0.1163
     51  CD       -12.4250   42.0360   50.5410 C.2    88  GLU88       0.3649
     52  OE1      -11.3170   42.2290   49.9830 O.co2  88  GLU88      -0.2457
     53  OE2      -13.0160   40.9760   50.4590 O.co2  88  GLU88      -0.2457
     54  N        -11.3020   46.7980   52.5870 N.am   89  GLY89      -0.1940
     55  CA       -10.3350   47.8630   52.3870 C.3    89  GLY89       0.2014
     56  C         -8.9910   47.1430   52.2060 C.2    89  GLY89       0.2639
     57  O         -8.9320   45.9170   52.2280 O.2    89  GLY89      -0.2714
     58  N         -7.9200   47.8830   52.0300 N.am   90  CYS90      -0.1953
     59  CA        -6.6190   47.2970   51.8470 C.3    90  CYS90       0.1843
     60  C         -5.5500   48.2990   52.3170 C.2    90  CYS90       0.2625
     61  O         -5.6040   49.4720   51.9760 O.2    90  CYS90      -0.2714
     62  CB        -6.3870   46.9490   50.3490 C.3    90  CYS90       0.0997
     63  SG        -4.6960   46.2490   49.9680 S.3    90  CYS90      -0.0797
     64  N         -4.5610   47.8130   53.0710 N.am   91  LEU91      -0.1977
     65  CA        -3.4940   48.6890   53.5580 C.3    91  LEU91       0.1596
     66  C         -2.6850   49.3060   52.4530 C.2    91  LEU91       0.2287
     67  O         -1.9440   50.2730   52.6760 O.2    91  LEU91      -0.2864
     68  CB        -2.5870   47.9440   54.5640 C.3    91  LEU91       0.0297
     69  CG        -3.3140   47.6270   55.9000 C.3    91  LEU91       0.0022
     70  CD1       -2.4190   46.7820   56.8140 C.3    91  LEU91       0.0001
     71  CD2       -3.7200   48.9600   56.5950 C.3    91  LEU91       0.0001
     72  N        -12.5160   51.8820   50.0810 N.3    97  TYR97      -0.1241
     73  CA       -13.3360   50.7520   50.4930 C.3    97  TYR97       0.1605
     74  C        -14.3620   50.4350   49.4180 C.2    97  TYR97       0.2264
     75  O        -14.9240   51.3250   48.7720 O.2    97  TYR97      -0.2867
     76  CB       -14.0930   51.0190   51.7910 C.3    97  TYR97       0.0534
     77  CG       -13.2210   51.3030   53.0120 C.ar   97  TYR97      -0.0201
     78  CD1      -12.7610   52.5970   53.2850 C.ar   97  TYR97      -0.0009
     79  CD2      -12.7880   50.2700   53.8310 C.ar   97  TYR97      -0.0009
     80  CE1      -11.8690   52.8540   54.3380 C.ar   97  TYR97       0.0417
     81  CE2      -11.8900   50.5220   54.8870 C.ar   97  TYR97       0.0417
     82  CZ       -11.4360   51.8230   55.1180 C.ar   97  TYR97       0.1957
     83  OH       -10.4890   52.0700   56.0970 O.3    97  TYR97      -0.2866
     84  N        -15.8220   36.1580   58.0290 N.3   125  PHE125     -0.1241
     85  CA       -14.7930   37.1730   57.9200 C.3   125  PHE125      0.1605
     86  C        -13.3190   36.6560   57.8290 C.2   125  PHE125      0.2264
     87  O        -12.5220   37.1760   57.0500 O.2   125  PHE125     -0.2867
     88  CB       -15.0120   38.1870   59.0470 C.3   125  PHE125      0.0534
     89  CG       -14.1420   39.3800   58.9210 C.ar  125  PHE125     -0.0203
     90  CD1      -14.4090   40.3430   57.9510 C.ar  125  PHE125     -0.0042
     91  CD2      -12.9790   39.4830   59.6830 C.ar  125  PHE125     -0.0042
     92  CE1      -13.5060   41.3930   57.7310 C.ar  125  PHE125     -0.0003
     93  CE2      -12.0740   40.5130   59.4910 C.ar  125  PHE125     -0.0003
     94  CZ       -12.3300   41.4820   58.5020 C.ar  125  PHE125     -0.0000
     95  N        -12.7370   35.6320   54.3750 N.3   128  ARG128     -0.1231
     96  CA       -12.5820   36.7890   53.5050 C.3   128  ARG128      0.1694
     97  C        -11.1290   37.3370   53.5920 C.2   128  ARG128      0.2591
     98  O        -10.4920   37.6120   52.6110 O.2   128  ARG128     -0.2718
     99  CB       -13.5550   37.8750   53.9180 C.3   128  ARG128      0.0321
    100  CG       -13.4150   39.2500   53.1240 C.3   128  ARG128      0.0489
    101  CD       -14.4020   40.3370   53.5820 C.3   128  ARG128      0.2205
    102  NE       -15.7960   39.9550   53.3190 N.pl3 128  ARG128     -0.0865
    103  CZ       -16.3630   40.0350   52.1160 C.cat 128  ARG128      0.5346
    104  NH1      -15.6210   40.4870   51.0940 N.pl3 128  ARG128      0.1354
    105  NH2      -17.6550   39.6410   51.9100 N.pl3 128  ARG128      0.1354
    106  N        -10.6430   37.5110   54.7960 N.am  129  ALA129     -0.1980
    107  CA        -9.2900   38.0260   54.9980 C.3   129  ALA129      0.1597
    108  C         -8.2920   37.1320   54.2760 C.2   129  ALA129      0.2287
    109  O         -7.4290   37.5980   53.5710 O.2   129  ALA129     -0.2864
    110  CB        -9.0020   38.0730   56.5360 C.3   129  ALA129      0.0319
    111  N         -8.3540   37.5400   50.5510 N.3   132  HIS132     -0.1226
    112  CA        -7.7750   38.8120   50.2100 C.3   132  HIS132      0.1752
    113  C         -6.2530   38.6880   50.1860 C.2   132  HIS132      0.2595
    114  O         -5.6380   39.1730   49.2540 O.2   132  HIS132     -0.2718
    115  CB        -8.1870   39.8470   51.2710 C.3   132  HIS132      0.0759
    116  CG        -7.6620   41.2190   51.0110 C.ar  132  HIS132      0.0818
    117  ND1       -8.4770   42.2370   50.5850 N.ar  132  HIS132     -0.2268
    118  CD2       -6.4480   41.7840   51.2680 C.ar  132  HIS132      0.1154
    119  CE1       -7.7940   43.3750   50.6040 C.ar  132  HIS132      0.1986
    120  NE2       -6.5660   43.1260   51.0190 N.ar  132  HIS132     -0.2212
    121  N         -5.6510   38.0680   51.2150 N.am  133  GLU133     -0.1979
    122  CA        -4.1710   37.9010   51.2630 C.3   133  GLU133      0.1602
    123  C         -3.6830   36.9660   50.1510 C.2   133  GLU133      0.2287
    124  O         -2.6630   37.2460   49.4800 O.2   133  GLU133     -0.2864
    125  CB        -3.7160   37.2870   52.5750 C.3   133  GLU133      0.0415
    126  CG        -4.0770   38.1100   53.8210 C.3   133  GLU133      0.1163
    127  CD        -3.7030   39.5770   53.6820 C.2   133  GLU133      0.3649
    128  OE1       -2.6460   39.9110   53.0910 O.co2 133  GLU133     -0.2457
    129  OE2       -4.4550   40.4350   54.2040 O.co2 133  GLU133     -0.2457
    130  N         -3.2960   38.6950   46.9640 N.3   136  HIS136     -0.1241
    131  CA        -2.0440   39.4770   46.9500 C.3   136  HIS136      0.1621
    132  C         -0.8450   38.6550   46.5160 C.2   136  HIS136      0.2264
    133  O          0.0030   39.1750   45.8390 O.2   136  HIS136     -0.2867
    134  CB        -1.7160   40.0140   48.3420 C.3   136  HIS136      0.0745
    135  CG        -2.3190   41.3530   48.6320 C.ar  136  HIS136      0.0817
    136  ND1       -2.0110   42.4960   47.9100 N.ar  136  HIS136     -0.2268
    137  CD2       -3.1960   41.7350   49.5860 C.ar  136  HIS136      0.1154
    138  CE1       -2.6630   43.5280   48.4290 C.ar  136  HIS136      0.1986
    139  NE2       -3.3720   43.0940   49.4570 N.ar  136  HIS136     -0.2212
@<TRIPOS>BOND
     1   133   132    2
     2   132   131    1
     3   131   130    1
     4   131   134    1
     5   136   138   ar
     6   136   135   ar
     7   134   135    1
     8   138   139   ar
     9   135   137   ar
    10    75    74    2
    11   114   113    2
    12    74    73    1
    13   139   137   ar
    14   124   123    2
    15    63    62    1
    16    52    51   ar
    17    29    30    1
    18    72    73    1
    19   123   122    1
    20   113   112    1
    21   113   121   am
    22   112   111    1
    23   112   115    1
    24    62    59    1
    25    53    51   ar
    26    73    76    1
    27    51    50    1
    28    30    31    1
    29    30    33    1
    30   117   119   ar
    31   117   116   ar
    32   119   120   ar
    33    34    33    1
    34    34    35    1
    35   116   118   ar
    36   116   115    1
    37   120   118   ar
    38    48    47    2
    39    49    50    1
    40    49    46    1
    41   104   103    1
    42   121   122    1
    43   122   125    1
    44    31    32    2
    45    35    37   am
    46    35    36    2
    47    76    77    1
    48    59    58    1
    49    59    60    1
    50    47    46    1
    51    47    54   am
    52   105   103    1
    53    61    60    2
    54    45    46    1
    55    45    40   am
    56    58    56   am
    57   103   102    2
    58    56    57    2
    59    56    55    1
    60    60    64   am
    61    55    54    1
    62    66    67    2
    63    66    65    1
    64   125   126    1
    65    98    97    2
    66    39    38    1
    67    39    40    1
    68    39    42    1
    69    38    44    1
    70    40    41    2
    71    77    78   ar
    72    77    79   ar
    73    64    65    1
    74   128   127   ar
    75   100   101    1
    76   100    99    1
    77    78    80   ar
    78   102   101    1
    79    96    97    1
    80    96    99    1
    81    96    95    1
    82    65    68    1
    83   109   108    2
    84    97   106   am
    85   127   126    1
    86   127   129   ar
    87    42    43    1
    88    79    81   ar
    89    44    43    1
    90   108   107    1
    91    80    82   ar
    92    68    69    1
    93   106   107    1
    94    81    82   ar
    95   107   110    1
    96    82    83    1
    97    69    71    1
    98    69    70    1
    99    28    27    2
   100    27    26    1
   101    87    86    2
   102    26    25    1
   103    92    90   ar
   104    92    94   ar
   105    86    85    1
   106    85    84    1
   107    85    88    1
   108    90    89   ar
   109    25    20   am
   110    94    93   ar
   111    24    22    1
   112    89    88    1
   113    89    91   ar
   114    20    21    2
   115    20    19    1
   116    93    91   ar
   117    18    19    1
   118    18    16   am
   119    15    16    1
   120    15    14    1
   121     5     2    1
   122    22    19    1
   123    22    23    1
   124     4     3    2
   125    16    17    2
   126    14     8   am
   127     9     8    2
   128     2     3    1
   129     2     1    1
   130     3     6   am
   131     8     7    1
   132     6     7    1
   133    10     7    1
   134    10    11    1
   135    13    11   ar
   136    11    12   ar
