@<TRIPOS>MOLECULE
tmp/1wssB00.pdb
 211 208 0 0 0
SMALL
GASTEIGER

@<TRIPOS>ATOM
      1  N         31.7520   14.3020    4.2350 N.3    41  HIS41      -0.1241
      2  CA        32.2130   13.0110    3.7420 C.3    41  HIS41       0.1621
      3  C         31.1110   12.2270    3.0250 C.2    41  HIS41       0.2264
      4  O         31.3860   11.2640    2.3090 O.2    41  HIS41      -0.2867
      5  CB        32.8520   12.1700    4.8650 C.3    41  HIS41       0.0745
      6  CG        31.8750   11.4870    5.7730 C.ar   41  HIS41       0.0817
      7  ND1       31.4070   12.0610    6.9360 N.ar   41  HIS41      -0.2268
      8  CD2       31.3110   10.2570    5.7080 C.ar   41  HIS41       0.1154
      9  CE1       30.6020   11.2120    7.5490 C.ar   41  HIS41       0.1986
     10  NE2       30.5260   10.1090    6.8250 N.ar   41  HIS41      -0.2212
     11  N         31.9690   12.1080   -0.6180 N.3    44  ASP44      -0.1225
     12  CA        33.3040   11.6560   -0.9830 C.3    44  ASP44       0.1805
     13  C         33.3500   10.8880   -2.3100 C.2    44  ASP44       0.2597
     14  O         34.2650   11.0900   -3.1130 O.2    44  ASP44      -0.2718
     15  CB        33.8740   10.7710    0.1280 C.3    44  ASP44       0.1424
     16  CG        34.5310   11.5650    1.2410 C.2    44  ASP44       0.3668
     17  OD1       34.3330   12.7700    1.3210 O.co2  44  ASP44      -0.2456
     18  OD2       35.2400   10.9630    2.0300 O.co2  44  ASP44      -0.2456
     19  N         32.3800   10.0040   -2.5370 N.am   45  LYS45      -0.1979
     20  CA        32.3520    9.2200   -3.7710 C.3    45  LYS45       0.1596
     21  C         31.1640    9.4740   -4.6890 C.2    45  LYS45       0.2287
     22  O         30.7770    8.6010   -5.4660 O.2    45  LYS45      -0.2864
     23  CB        32.4210    7.7200   -3.4670 C.3    45  LYS45       0.0298
     24  CG        33.8230    7.1950   -3.2270 C.3    45  LYS45       0.0038
     25  CD        34.1760    7.2270   -1.7670 C.3    45  LYS45       0.0206
     26  CE        33.2830    6.2820   -0.9870 C.3    45  LYS45       0.1093
     27  NZ        33.5500    6.3600    0.4800 N.3    45  LYS45      -0.1314
     28  N         38.0360   21.1230    3.8690 N.3    82  TYR82      -0.1241
     29  CA        37.7190   19.7110    4.0470 C.3    82  TYR82       0.1605
     30  C         38.4750   18.8400    3.0440 C.2    82  TYR82       0.2264
     31  O         38.5900   19.1870    1.8680 O.2    82  TYR82      -0.2867
     32  CB        36.2200   19.4660    3.8740 C.3    82  TYR82       0.0534
     33  CG        35.8710   17.9930    3.8240 C.ar   82  TYR82      -0.0201
     34  CD1       35.7480   17.2470    4.9870 C.ar   82  TYR82      -0.0009
     35  CD2       35.7300   17.3360    2.6060 C.ar   82  TYR82      -0.0009
     36  CE1       35.5000   15.8910    4.9420 C.ar   82  TYR82       0.0417
     37  CE2       35.4830   15.9780    2.5510 C.ar   82  TYR82       0.0417
     38  CZ        35.3700   15.2610    3.7200 C.ar   82  TYR82       0.1957
     39  OH        35.1360   13.9050    3.6650 O.3    82  TYR82      -0.2866
     40  N         37.9250   11.7290    2.4590 N.3    85  GLY85      -0.1210
     41  CA        38.5430   10.6030    3.1280 C.3    85  GLY85       0.1956
     42  C         39.0590   10.9390    4.5080 C.2    85  GLY85       0.2613
     43  O         39.4610   10.0450    5.2470 O.2    85  GLY85      -0.2717
     44  N         39.0470   12.2210    4.8670 N.am   86  THR86      -0.1938
     45  CA        39.5260   12.6350    6.1840 C.3    86  THR86       0.2028
     46  C         38.3670   12.9580    7.1240 C.2    86  THR86       0.2642
     47  O         37.2160   12.6770    6.8010 O.2    86  THR86      -0.2714
     48  CB        40.4840   13.8440    6.0800 C.3    86  THR86       0.1808
     49  OG1       39.7650   15.0040    5.6440 O.3    86  THR86      -0.2208
     50  CG2       41.5930   13.5410    5.0840 C.3    86  THR86       0.0379
     51  N         38.6640   13.5530    8.2770 N.am   87  THR87      -0.1950
     52  CA        37.6190   13.8520    9.2550 C.3    87  THR87       0.1897
     53  C         37.3380   15.3130    9.6250 C.2    87  THR87       0.2313
     54  O         36.2000   15.6680    9.9400 O.2    87  THR87      -0.2863
     55  CB        37.8900   13.0900   10.5720 C.3    87  THR87       0.1794
     56  OG1       39.2180   13.3810   11.0230 O.3    87  THR87      -0.2208
     57  CG2       37.7460   11.5940   10.3720 C.3    87  THR87       0.0378
     58  N         23.1180    1.9870   10.5200 N.3   134  GLN134     -0.1245
     59  CA        23.2400    0.6190   11.0180 C.3   134  GLN134      0.1566
     60  C         22.7610    0.4740   12.4630 C.2   134  GLN134      0.2260
     61  O         22.9910    1.3530   13.2980 O.2   134  GLN134     -0.2867
     62  CB        24.6980    0.1550   10.9290 C.3   134  GLN134      0.0367
     63  CG        25.3140    0.1940    9.5370 C.3   134  GLN134      0.0905
     64  CD        25.3260    1.5870    8.9310 C.2   134  GLN134      0.2608
     65  OE1       25.5160    2.5860    9.6320 O.2   134  GLN134     -0.2717
     66  NE2       25.1370    1.6600    7.6140 N.am  134  GLN134     -0.0878
     67  N         27.3160   -2.4450   14.6090 N.3   137  ASP137     -0.1225
     68  CA        28.5680   -2.1970   13.9090 C.3   137  ASP137      0.1805
     69  C         28.6510   -3.2220   12.7830 C.2   137  ASP137      0.2597
     70  O         28.5550   -4.4260   13.0260 O.2   137  ASP137     -0.2718
     71  CB        29.7410   -2.3590   14.8840 C.3   137  ASP137      0.1424
     72  CG        31.0710   -1.9690   14.2750 C.2   137  ASP137      0.3668
     73  OD1       31.1380   -0.9360   13.6310 O.co2 137  ASP137     -0.2456
     74  OD2       32.0290   -2.6910   14.4590 O.co2 137  ASP137     -0.2456
     75  N         28.8060   -2.7460   11.5520 N.am  138  ARG138     -0.1979
     76  CA        28.8840   -3.6360   10.3930 C.3   138  ARG138      0.1597
     77  C         27.5360   -4.2940   10.0990 C.2   138  ARG138      0.2287
     78  O         27.4270   -5.1330    9.2070 O.2   138  ARG138     -0.2864
     79  CB        29.9380   -4.7280   10.6190 C.3   138  ARG138      0.0334
     80  CG        31.3750   -4.2300   10.6370 C.3   138  ARG138      0.0492
     81  CD        32.3510   -5.3690   10.9190 C.3   138  ARG138      0.2205
     82  NE        33.7410   -4.9380   10.7880 N.pl3 138  ARG138     -0.0865
     83  CZ        34.7960   -5.7330   10.9530 C.cat 138  ARG138      0.5346
     84  NH1       34.6300   -7.0150   11.2610 N.pl3 138  ARG138      0.1354
     85  NH2       36.0230   -5.2470   10.8010 N.pl3 138  ARG138      0.1354
     86  N         42.7120    9.6840   13.9600 N.3   169  PRO169     -0.2116
     87  CA        42.5450   11.1190   13.7150 C.3   169  PRO169      0.1372
     88  C         42.4960   11.9080   15.0210 C.2   169  PRO169      0.2244
     89  O         42.0230   11.4040   16.0390 O.2   169  PRO169     -0.2868
     90  CB        41.2170   11.1860   12.9670 C.3   169  PRO169      0.0268
     91  CG        41.1530    9.8650   12.2680 C.3   169  PRO169      0.0207
     92  CD        41.6250    8.9170   13.3340 C.3   169  PRO169      0.0892
     93  N         25.4260    4.3980   20.4080 N.3   186  ASP186     -0.1225
     94  CA        26.1930    5.3390   19.5980 C.3   186  ASP186      0.1805
     95  C         25.5150    5.4850   18.2280 C.2   186  ASP186      0.2598
     96  O         24.6030    4.7260   17.8930 O.2   186  ASP186     -0.2718
     97  CB        27.6250    4.7850   19.4500 C.3   186  ASP186      0.1424
     98  CG        28.5390    5.6650   18.5960 C.2   186  ASP186      0.3668
     99  OD1       28.2580    6.8560   18.4160 O.co2 186  ASP186     -0.2456
    100  OD2       29.5510    5.1460   18.1300 O.co2 186  ASP186     -0.2456
    101  N         25.9300    6.4800   17.4540 N.am  187  SER187     -0.1938
    102  CA        25.3790    6.6570   16.1220 C.3   187  SER187      0.2055
    103  C         26.2730    5.7980   15.2380 C.2   187  SER187      0.2643
    104  O         27.2520    5.2370   15.7270 O.2   187  SER187     -0.2714
    105  CB        25.4270    8.1290   15.7020 C.3   187  SER187      0.2130
    106  OG        26.7200    8.6730   15.8530 O.3   187  SER187     -0.2179
    107  N         25.9630    5.6770   13.9530 N.am  188  CYS188     -0.1953
    108  CA        26.7950    4.8380   13.1000 C.3   188  CYS188      0.1843
    109  C         26.9130    5.3400   11.6660 C.2   188  CYS188      0.2625
    110  O         26.2810    6.3270   11.2840 O.2   188  CYS188     -0.2714
    111  CB        26.2590    3.4050   13.1350 C.3   188  CYS188      0.0997
    112  SG        27.4080    2.1180   12.5590 S.3   188  CYS188     -0.0797
    113  N         27.7330    4.6510   10.8790 N.am  189  LYS189     -0.1977
    114  CA        27.9960    5.0110    9.4870 C.3   189  LYS189      0.1596
    115  C         26.8340    5.6270    8.7050 C.2   189  LYS189      0.2287
    116  O         26.9220    6.7680    8.2520 O.2   189  LYS189     -0.2864
    117  CB        28.5240    3.7910    8.7290 C.3   189  LYS189      0.0298
    118  CG        28.8300    4.0640    7.2660 C.3   189  LYS189      0.0038
    119  CD        29.5640    2.9010    6.6340 C.3   189  LYS189      0.0206
    120  CE        29.8940    3.1910    5.1750 C.3   189  LYS189      0.1093
    121  NZ        30.7200    4.4270    5.0260 N.3   189  LYS189     -0.1314
    122  N         25.4400    9.2540    9.2780 N.3   192  SER192     -0.1217
    123  CA        26.2460   10.4020    8.8610 C.3   192  SER192      0.1889
    124  C         25.4330   11.5890    8.3580 C.2   192  SER192      0.2288
    125  O         24.4740   11.4220    7.6050 O.2   192  SER192     -0.2866
    126  CB        27.2270    9.9820    7.7670 C.3   192  SER192      0.2089
    127  OG        28.1960    9.0890    8.2770 O.3   192  SER192     -0.2183
    128  N         26.4390   14.0210   12.7760 N.3   210  VAL210     -0.1231
    129  CA        27.0260   12.6880   12.8880 C.3   210  VAL210      0.1692
    130  C         28.1880   12.6800   11.8930 C.2   210  VAL210      0.2593
    131  O         27.9840   12.8980   10.7000 O.2   210  VAL210     -0.2718
    132  CB        25.9890   11.5980   12.5190 C.3   210  VAL210      0.0266
    133  CG1       26.5530   10.2260   12.7800 C.3   210  VAL210      0.0020
    134  CG2       24.7190   11.7990   13.3200 C.3   210  VAL210      0.0020
    135  N         29.4010   12.4260   12.3780 N.am  211  SER211     -0.1938
    136  CA        30.5710   12.4650   11.5040 C.3   211  SER211      0.2055
    137  C         31.4630   11.2260   11.4220 C.2   211  SER211      0.2643
    138  O         31.6180   10.6380   10.3560 O.2   211  SER211     -0.2714
    139  CB        31.4390   13.6700   11.8780 C.3   211  SER211      0.2130
    140  OG        32.5670   13.7570   11.0310 O.3   211  SER211     -0.2179
    141  N         32.0780   10.8390   12.5280 N.am  212  TRP212     -0.1959
    142  CA        32.9510    9.6790   12.4890 C.3   212  TRP212      0.1771
    143  C         33.1390    9.0330   13.8460 C.2   212  TRP212      0.2620
    144  O         32.5380    9.4420   14.8320 O.2   212  TRP212     -0.2715
    145  CB        34.3260   10.0650   11.9260 C.3   212  TRP212      0.0590
    146  CG        35.1200   11.0190   12.7990 C.ar  212  TRP212      0.0006
    147  CD1       34.9140   12.3620   12.9520 C.ar  212  TRP212      0.0946
    148  CD2       36.2530   10.6960   13.6170 C.ar  212  TRP212      0.0152
    149  NE1       35.8480   12.8920   13.8060 N.ar  212  TRP212     -0.2442
    150  CE2       36.6820   11.8910   14.2290 C.ar  212  TRP212      0.0810
    151  CE3       36.9460    9.5120   13.8890 C.ar  212  TRP212      0.0012
    152  CZ2       37.7750   11.9370   15.0960 C.ar  212  TRP212      0.0191
    153  CZ3       38.0300    9.5590   14.7500 C.ar  212  TRP212      0.0001
    154  CH2       38.4350   10.7640   15.3430 C.ar  212  TRP212      0.0015
    155  N         33.9900    8.0180   13.8820 N.am  213  GLY213     -0.1940
    156  CA        34.2620    7.3240   15.1210 C.3   213  GLY213      0.2014
    157  C         34.8920    5.9700   14.8680 C.2   213  GLY213      0.2639
    158  O         34.8430    5.4540   13.7480 O.2   213  GLY213     -0.2714
    159  N         35.4960    5.4030   15.9070 N.am  214  GLN214     -0.1963
    160  CA        36.1330    4.0990   15.8060 C.3   214  GLN214      0.1733
    161  C         35.0180    3.0680   15.7360 C.2   214  GLN214      0.2617
    162  O         34.4100    2.7220   16.7490 O.2   214  GLN214     -0.2715
    163  CB        37.0080    3.8570   17.0370 C.3   214  GLN214      0.0408
    164  CG        37.9390    2.6810   16.9100 C.3   214  GLN214      0.0908
    165  CD        38.8630    2.8200   15.7220 C.2   214  GLN214      0.2608
    166  OE1       39.5220    3.8500   15.5500 O.2   214  GLN214     -0.2717
    167  NE2       38.9200    1.7840   14.8930 N.am  214  GLN214     -0.0878
    168  N         34.7410    2.5840   14.5320 N.am  215  GLY215     -0.1940
    169  CA        33.6680    1.6240   14.3680 C.3   215  GLY215      0.2014
    170  C         32.3910    2.2360   14.9160 C.2   215  GLY215      0.2639
    171  O         32.2090    3.4550   14.8670 O.2   215  GLY215     -0.2714
    172  N         31.5050    1.3990   15.4470 N.am  216  CYS216     -0.1967
    173  CA        30.2500    1.8780   16.0120 C.3   216  CYS216      0.1712
    174  C         29.9870    1.2720   17.3850 C.2   216  CYS216      0.2296
    175  O         29.7350    0.0780   17.5140 O.2   216  CYS216     -0.2864
    176  CB        29.0850    1.5710   15.0620 C.3   216  CYS216      0.0983
    177  SG        29.1600    2.5170   13.5090 S.3   216  CYS216     -0.0798
    178  N         34.2010    6.8640   21.7420 N.3   222  PHE222     -0.1227
    179  CA        32.9950    7.6770   21.7080 C.3   222  PHE222      0.1736
    180  C         32.6950    8.0710   20.2680 C.2   222  PHE222      0.2596
    181  O         33.5650    7.9810   19.3940 O.2   222  PHE222     -0.2718
    182  CB        33.1940    8.9500   22.5410 C.3   222  PHE222      0.0547
    183  CG        33.3290    8.7020   24.0160 C.ar  222  PHE222     -0.0202
    184  CD1       32.2110    8.7070   24.8410 C.ar  222  PHE222     -0.0042
    185  CD2       34.5770    8.4580   24.5820 C.ar  222  PHE222     -0.0042
    186  CE1       32.3320    8.4740   26.2080 C.ar  222  PHE222     -0.0003
    187  CE2       34.7080    8.2240   25.9510 C.ar  222  PHE222     -0.0003
    188  CZ        33.5820    8.2320   26.7620 C.ar  222  PHE222     -0.0000
    189  N         31.4620    8.5010   20.0220 N.am  223  GLY223     -0.1942
    190  CA        31.1110    8.9420   18.6890 C.3   223  GLY223      0.2014
    191  C         31.6510   10.3540   18.5470 C.2   223  GLY223      0.2639
    192  O         31.7720   11.0620   19.5450 O.2   223  GLY223     -0.2714
    193  N         31.9960   10.7670   17.3320 N.am  224  VAL224     -0.1963
    194  CA        32.5120   12.1160   17.1260 C.3   224  VAL224      0.1727
    195  C         31.5880   12.9050   16.1990 C.2   224  VAL224      0.2616
    196  O         31.1790   12.4170   15.1460 O.2   224  VAL224     -0.2715
    197  CB        33.9330   12.1040   16.5180 C.3   224  VAL224      0.0290
    198  CG1       34.5090   13.5220   16.5340 C.3   224  VAL224      0.0023
    199  CG2       34.8260   11.1620   17.2950 C.3   224  VAL224      0.0023
    200  N         31.2740   14.1340   16.5940 N.am  225  TYR225     -0.1974
    201  CA        30.3760   14.9800   15.8170 C.3   225  TYR225      0.1639
    202  C         31.0280   16.2960   15.4230 C.2   225  TYR225      0.2290
    203  O         31.9420   16.7700   16.0910 O.2   225  TYR225     -0.2864
    204  CB        29.1060   15.2670   16.6310 C.3   225  TYR225      0.0560
    205  CG        28.3900   14.0190   17.0820 C.ar  225  TYR225     -0.0198
    206  CD1       28.8870   13.2460   18.1250 C.ar  225  TYR225     -0.0009
    207  CD2       27.2630   13.5640   16.4100 C.ar  225  TYR225     -0.0009
    208  CE1       28.2850   12.0500   18.4770 C.ar  225  TYR225      0.0417
    209  CE2       26.6590   12.3680   16.7540 C.ar  225  TYR225      0.0417
    210  CZ        27.1750   11.6180   17.7810 C.ar  225  TYR225      0.1957
    211  OH        26.6020   10.4100   18.0890 O.3   225  TYR225     -0.2866
@<TRIPOS>BOND
     1    22    21    2
     2    21    20    1
     3    20    23    1
     4    20    19    1
     5    23    24    1
     6    24    25    1
     7    14    13    2
     8    19    13   am
     9    13    12    1
    10    25    26    1
    11    26    27    1
    12    12    11    1
    13    12    15    1
    14    15    16    1
    15    16    17   ar
    16    16    18   ar
    17    31    30    2
    18     4     3    2
    19    40    41    1
    20    37    35   ar
    21    37    38   ar
    22    35    33   ar
    23     3     2    1
    24    30    29    1
    25    41    42    1
    26    39    38    1
    27    38    36   ar
    28     2     1    1
    29     2     5    1
    30    33    32    1
    31    33    34   ar
    32    28    29    1
    33    32    29    1
    34    42    44   am
    35    42    43    2
    36     5     6    1
    37    44    45    1
    38    36    34   ar
    39   121   120    1
    40    50    48    1
    41   120   119    1
    42    49    48    1
    43     8     6   ar
    44     8    10   ar
    45     6     7   ar
    46    48    45    1
    47    45    46    1
    48   119   118    1
    49    47    46    2
    50    10     9   ar
    51     7     9   ar
    52    46    51   am
    53   118   117    1
    54   125   124    2
    55    66    64   am
    56   126   127    1
    57   126   123    1
    58   116   115    2
    59    51    52    1
    60   124   123    1
    61   115   114    1
    62   117   114    1
    63   123   122    1
    64    64    63    1
    65    64    65    2
    66    78    77    2
    67    52    53    1
    68    52    55    1
    69   114   113    1
    70    63    62    1
    71    53    54    2
    72    77    76    1
    73   138   137    2
    74    57    55    1
    75    76    79    1
    76    76    75    1
    77    58    59    1
    78    55    56    1
    79    79    80    1
    80    80    81    1
    81   131   130    2
    82    82    81    1
    83    82    83    2
    84    85    83    1
    85   113   109   am
    86    62    59    1
    87    83    84    1
    88    59    60    1
    89   140   139    1
    90   110   109    2
    91   137   136    1
    92   137   141   am
    93   136   139    1
    94   136   135    1
    95    75    69   am
    96   109   108    1
    97   130   135   am
    98   130   129    1
    99   145   142    1
   100   145   146    1
   101    91    90    1
   102    91    92    1
   103    60    61    2
   104   142   141    1
   105   142   143    1
   106   132   133    1
   107   132   129    1
   108   132   134    1
   109   112   111    1
   110   112   177    1
   111   128   129    1
   112    69    70    2
   113    69    68    1
   114   146   147   ar
   115   146   148   ar
   116   147   149   ar
   117    90    87    1
   118   108   111    1
   119   108   107    1
   120    92    86    1
   121   177   176    1
   122   148   151   ar
   123   148   150   ar
   124    73    72   ar
   125    87    86    1
   126    87    88    1
   127   158   157    2
   128   149   150   ar
   129   143   155   am
   130   143   144    2
   131   155   156    1
   132   151   153   ar
   133    68    67    1
   134    68    71    1
   135   107   103   am
   136   150   152   ar
   137    72    74   ar
   138    72    71    1
   139   169   168    1
   140   169   170    1
   141   168   161   am
   142   153   154   ar
   143   171   170    2
   144   157   156    1
   145   157   159   am
   146   167   165   am
   147   170   172   am
   148    88    89    2
   149   176   173    1
   150   152   154   ar
   151   196   195    2
   152   103   104    2
   153   103   102    1
   154   202   201    1
   155   202   203    2
   156   172   173    1
   157   166   165    2
   158   105   106    1
   159   105   102    1
   160   165   164    1
   161   161   160    1
   162   161   162    2
   163   160   159    1
   164   160   163    1
   165   201   200    1
   166   201   204    1
   167   173   174    1
   168   102   101    1
   169   195   200   am
   170   195   194    1
   171   207   209   ar
   172   207   205   ar
   173   197   198    1
   174   197   194    1
   175   197   199    1
   176   204   205    1
   177   209   210   ar
   178   164   163    1
   179   205   206   ar
   180   194   193    1
   181   193   191   am
   182   174   175    2
   183   101    95   am
   184   210   211    1
   185   210   208   ar
   186    96    95    2
   187   206   208   ar
   188   100    98   ar
   189    95    94    1
   190    99    98   ar
   191   191   190    1
   192   191   192    2
   193    98    97    1
   194   190   189    1
   195   181   180    2
   196    97    94    1
   197    94    93    1
   198   189   180   am
   199   180   179    1
   200   179   178    1
   201   179   182    1
   202   182   183    1
   203   183   185   ar
   204   183   184   ar
   205   185   187   ar
   206   184   186   ar
   207   187   188   ar
   208   186   188   ar
