@<TRIPOS>MOLECULE
tmp/1wstA00.pdb
 133 124 0 0 0
SMALL
GASTEIGER

@<TRIPOS>ATOM
      1  N          4.7800   32.6360   48.7660 N.3    37  GLY37      -0.1225
      2  CA         5.8810   32.4370   47.8410 C.3    37  GLY37       0.1811
      3  C          5.8560   33.5260   46.7880 C.2    37  GLY37       0.2280
      4  O          6.3280   33.3370   45.6680 O.2    37  GLY37      -0.2866
      5  N          5.7130   31.4570   31.5680 N.3   102  GLY102     -0.1210
      6  CA         6.2930   31.2740   32.8840 C.3   102  GLY102      0.1956
      7  C          7.1670   30.0320   32.8720 C.2   102  GLY102      0.2613
      8  O          6.9540   29.1300   32.0570 O.2   102  GLY102     -0.2717
      9  N          8.1570   29.9730   33.7570 N.am  103  SER103     -0.1938
     10  CA         9.0260   28.7990   33.8180 C.3   103  SER103      0.2055
     11  C          8.1940   27.5560   34.1110 C.2   103  SER103      0.2642
     12  O          8.5910   26.4430   33.7810 O.2   103  SER103     -0.2714
     13  CB        10.0880   28.9640   34.9070 C.3   103  SER103      0.2130
     14  OG        11.0720   29.8890   34.5070 O.3   103  SER103     -0.2179
     15  N          7.0340   27.7490   34.7310 N.am  104  GLN104     -0.1976
     16  CA         6.1630   26.6230   35.0530 C.3   104  GLN104      0.1601
     17  C          5.8340   25.8240   33.8020 C.2   104  GLN104      0.2287
     18  O          5.7970   24.5910   33.8270 O.2   104  GLN104     -0.2864
     19  CB         4.8600   27.1110   35.6860 C.3   104  GLN104      0.0394
     20  CG         3.9340   25.9830   36.1400 C.3   104  GLN104      0.0908
     21  CD         4.5810   25.0920   37.1890 C.2   104  GLN104      0.2608
     22  OE1        5.3300   25.5690   38.0390 O.2   104  GLN104     -0.2717
     23  NE2        4.2820   23.7940   37.1430 N.am  104  GLN104     -0.0878
     24  N          8.5550   23.5310   32.8180 N.3   107  LEU107     -0.1245
     25  CA         8.5690   22.3100   33.6130 C.3   107  LEU107      0.1561
     26  C          7.6030   21.2870   33.0200 C.2   107  LEU107      0.2260
     27  O          7.9550   20.1190   32.8420 O.2   107  LEU107     -0.2867
     28  CB         8.2000   22.6200   35.0670 C.3   107  LEU107      0.0270
     29  CG         9.1640   23.5730   35.7890 C.3   107  LEU107      0.0019
     30  CD1        8.6460   23.8830   37.1850 C.3   107  LEU107      0.0001
     31  CD2       10.5480   22.9360   35.8600 C.3   107  LEU107      0.0001
     32  N         11.3440   22.3200   44.7460 N.3   128  TYR128     -0.1241
     33  CA        10.2240   23.1840   44.3650 C.3   128  TYR128      0.1605
     34  C          8.9330   22.3780   44.1770 C.2   128  TYR128      0.2264
     35  O          8.8570   21.5010   43.3210 O.2   128  TYR128     -0.2867
     36  CB        10.6100   23.9160   43.0720 C.3   128  TYR128      0.0534
     37  CG         9.6060   24.8990   42.5160 C.ar  128  TYR128     -0.0201
     38  CD1        8.9510   25.8110   43.3440 C.ar  128  TYR128     -0.0009
     39  CD2        9.3760   24.9750   41.1410 C.ar  128  TYR128     -0.0009
     40  CE1        8.0940   26.7780   42.8160 C.ar  128  TYR128      0.0417
     41  CE2        8.5240   25.9430   40.6000 C.ar  128  TYR128      0.0417
     42  CZ         7.8880   26.8400   41.4440 C.ar  128  TYR128      0.1957
     43  OH         7.0580   27.8080   40.9190 O.3   128  TYR128     -0.2866
     44  N         17.3220   23.5720   41.4570 N.3   177  VAL177     -0.1245
     45  CA        17.0880   25.0040   41.6050 C.3   177  VAL177      0.1561
     46  C         18.4030   25.3500   42.2830 C.2   177  VAL177      0.2260
     47  O         18.4840   25.4630   43.5070 O.2   177  VAL177     -0.2867
     48  CB        15.9280   25.3220   42.5580 C.3   177  VAL177      0.0252
     49  CG1       15.7210   26.8310   42.6080 C.3   177  VAL177      0.0019
     50  CG2       14.6600   24.6180   42.0930 C.3   177  VAL177      0.0019
     51  N         14.1910   27.2620   46.3030 N.3   182  ASN182     -0.1240
     52  CA        12.8370   27.3490   46.8190 C.3   182  ASN182      0.1653
     53  C         12.6700   25.8490   47.0310 C.2   182  ASN182      0.2266
     54  O         12.7150   25.0820   46.0670 O.2   182  ASN182     -0.2867
     55  CB        11.8510   27.8280   45.7500 C.3   182  ASN182      0.1155
     56  CG        10.4120   27.8020   46.2410 C.2   182  ASN182      0.2627
     57  OD1       10.1180   27.2120   47.2810 O.2   182  ASN182     -0.2716
     58  ND2        9.5100   28.4320   45.4940 N.am  182  ASN182     -0.0877
     59  N         16.8200   25.4390   37.0650 N.3   210  ASP210     -0.1239
     60  CA        15.7690   26.4310   37.2530 C.3   210  ASP210      0.1674
     61  C         16.4580   27.6310   37.9000 C.2   210  ASP210      0.2266
     62  O         16.9630   27.5260   39.0230 O.2   210  ASP210     -0.2867
     63  CB        14.7020   25.8710   38.1980 C.3   210  ASP210      0.1410
     64  CG        13.3400   26.5020   37.9870 C.2   210  ASP210      0.3668
     65  OD1       13.2690   27.6050   37.4070 O.co2 210  ASP210     -0.2456
     66  OD2       12.3420   25.8890   38.4140 O.co2 210  ASP210     -0.2456
     67  N         15.1980   31.0200   38.7500 N.3   212  PRO212     -0.2102
     68  CA        14.3070   32.1430   39.0400 C.3   212  PRO212      0.1504
     69  C         14.9350   33.2500   39.8900 C.2   212  PRO212      0.2575
     70  O         14.5030   34.3980   39.8270 O.2   212  PRO212     -0.2718
     71  CB        13.1430   31.4710   39.7560 C.3   212  PRO212      0.0282
     72  CG        13.8480   30.3850   40.5320 C.3   212  PRO212      0.0208
     73  CD        14.7660   29.8110   39.4760 C.3   212  PRO212      0.0893
     74  N         15.9530   32.9080   40.6750 N.am  213  TYR213     -0.1977
     75  CA        16.5970   33.8880   41.5490 C.3   213  TYR213      0.1639
     76  C         18.0540   34.1450   41.1970 C.2   213  TYR213      0.2290
     77  O         18.8040   34.6810   42.0150 O.2   213  TYR213     -0.2864
     78  CB        16.5150   33.4100   43.0050 C.3   213  TYR213      0.0560
     79  CG        15.1360   32.9430   43.4070 C.ar  213  TYR213     -0.0198
     80  CD1       14.0700   33.8380   43.4690 C.ar  213  TYR213     -0.0009
     81  CD2       14.8840   31.5970   43.6720 C.ar  213  TYR213     -0.0009
     82  CE1       12.7890   33.4080   43.7770 C.ar  213  TYR213      0.0417
     83  CE2       13.5980   31.1530   43.9810 C.ar  213  TYR213      0.0417
     84  CZ        12.5590   32.0650   44.0290 C.ar  213  TYR213      0.1957
     85  OH        11.2830   31.6470   44.3220 O.3   213  TYR213     -0.2866
     86  N         13.1600   33.4730   34.2790 N.3   240  THR240     -0.1218
     87  CA        11.8100   34.0150   34.3420 C.3   240  THR240      0.1862
     88  C         11.8120   35.4820   34.7310 C.2   240  THR240      0.2287
     89  O         12.7180   35.9510   35.4200 O.2   240  THR240     -0.2866
     90  CB        10.9220   33.2390   35.3480 C.3   240  THR240      0.1770
     91  OG1        9.6300   33.8560   35.4150 O.3   240  THR240     -0.2211
     92  CG2       11.5440   33.2450   36.7440 C.3   240  THR240      0.0375
     93  N          9.3630   36.6610   36.4110 N.3   242  SER242     -0.1202
     94  CA         8.5280   36.6900   37.6070 C.3   242  SER242      0.2020
     95  C          9.0800   37.4420   38.8110 C.2   242  SER242      0.2618
     96  O          8.3320   38.1470   39.4850 O.2   242  SER242     -0.2717
     97  CB         8.1600   35.2640   38.0270 C.3   242  SER242      0.2103
     98  OG         7.2160   34.7100   37.1240 O.3   242  SER242     -0.2182
     99  N         10.3750   37.3110   39.0800 N.am  243  LYS243     -0.1979
    100  CA        10.9590   37.9780   40.2390 C.3   243  LYS243      0.1596
    101  C         11.7830   39.2160   39.8950 C.2   243  LYS243      0.2287
    102  O         12.2350   39.9300   40.7910 O.2   243  LYS243     -0.2864
    103  CB        11.8430   36.9960   41.0260 C.3   243  LYS243      0.0298
    104  CG        11.3420   35.5350   41.0770 C.3   243  LYS243      0.0038
    105  CD         9.8950   35.4370   41.5120 C.3   243  LYS243      0.0206
    106  CE         9.5280   34.0390   42.0260 C.3   243  LYS243      0.1093
    107  NZ         9.7890   32.8970   41.1090 N.3   243  LYS243     -0.1314
    108  N          5.3710   38.7830   38.1340 N.3   247  PRO247     -0.2116
    109  CA         4.8390   37.4480   37.8310 C.3   247  PRO247      0.1372
    110  C          3.6820   37.4820   36.8400 C.2   247  PRO247      0.2244
    111  O          3.4890   36.5480   36.0610 O.2   247  PRO247     -0.2868
    112  CB         4.3670   36.9400   39.1950 C.3   247  PRO247      0.0268
    113  CG         5.1860   37.7090   40.1670 C.3   247  PRO247      0.0207
    114  CD         5.2180   39.0850   39.5660 C.3   247  PRO247      0.0892
    115  N          3.5820   36.4610   33.0080 N.3   250  ARG250     -0.1245
    116  CA         3.7040   35.0400   32.6920 C.3   250  ARG250      0.1563
    117  C          4.6530   34.8430   31.5220 C.2   250  ARG250      0.2260
    118  O          4.2870   34.2840   30.4870 O.2   250  ARG250     -0.2867
    119  CB         2.3350   34.4310   32.3530 C.3   250  ARG250      0.0307
    120  CG         1.2910   34.5770   33.4580 C.3   250  ARG250      0.0489
    121  CD         1.8510   34.1490   34.8130 C.3   250  ARG250      0.2205
    122  NE         2.2510   32.7430   34.8490 N.pl3 250  ARG250     -0.0865
    123  CZ         3.3530   32.2980   35.4460 C.cat 250  ARG250      0.5346
    124  NH1        4.1730   33.1490   36.0500 N.pl3 250  ARG250      0.1354
    125  NH2        3.6330   31.0000   35.4530 N.pl3 250  ARG250      0.1354
    126  N         14.2590   34.4150   48.2540 N.3   331  MET331     -0.1245
    127  CA        13.1270   34.7780   49.0940 C.3   331  MET331      0.1570
    128  C         12.8030   33.8230   50.2280 C.2   331  MET331      0.2261
    129  O         11.8760   34.0860   50.9980 O.2   331  MET331     -0.2867
    130  CB        11.8680   34.8840   48.2240 C.3   331  MET331      0.0387
    131  CG        12.1030   35.3630   46.7910 C.3   331  MET331      0.0595
    132  SD        10.5450   35.7480   45.9240 S.3   331  MET331     -0.1393
    133  CE         9.7660   34.1510   45.8710 C.3   331  MET331      0.0692
@<TRIPOS>BOND
     1   118   117    2
     2   117   116    1
     3     5     6    1
     4     8     7    2
     5   119   116    1
     6   119   120    1
     7   116   115    1
     8    24    25    1
     9    27    26    2
    10     7     6    1
    11     7     9   am
    12    26    25    1
    13   120   121    1
    14    25    28    1
    15     9    10    1
    16    12    11    2
    17    17    18    2
    18    17    16    1
    19    10    11    1
    20    10    13    1
    21    11    15   am
    22    86    87    1
    23    87    88    1
    24    87    90    1
    25    14    13    1
    26    15    16    1
    27    88    89    2
    28   121   122    1
    29   122   123    2
    30    16    19    1
    31    28    29    1
    32    90    91    1
    33    90    92    1
    34   123   125    1
    35   123   124    1
    36    19    20    1
    37    29    31    1
    38    29    30    1
    39   111   110    2
    40    20    21    1
    41    93    94    1
    42   110   109    1
    43    59    60    1
    44    98    97    1
    45    23    21   am
    46    21    22    2
    47    60    61    1
    48    60    63    1
    49    65    64   ar
    50    94    97    1
    51    94    95    1
    52   109   108    1
    53   109   112    1
    54    61    62    2
    55    64    63    1
    56    64    66   ar
    57   108   114    1
    58    67    68    1
    59    67    73    1
    60    95    99   am
    61    95    96    2
    62    68    71    1
    63    68    69    1
    64    99   100    1
    65   112   113    1
    66    73    72    1
    67   114   113    1
    68    71    72    1
    69    70    69    2
    70    69    74   am
    71   101   100    1
    72   101   102    2
    73   100   103    1
    74    41    39   ar
    75    41    42   ar
    76    74    75    1
    77    43    42    1
    78   103   104    1
    79   104   105    1
    80   107   106    1
    81    39    37   ar
    82    76    75    1
    83    76    77    2
    84    42    40   ar
    85    44    45    1
    86   105   106    1
    87    75    78    1
    88    45    46    1
    89    45    48    1
    90    50    48    1
    91    46    47    2
    92    37    36    1
    93    37    38   ar
    94    48    49    1
    95    40    38   ar
    96    78    79    1
    97    36    33    1
    98    35    34    2
    99    79    80   ar
   100    79    81   ar
   101    80    82   ar
   102    81    83   ar
   103    82    84   ar
   104    83    84   ar
   105    84    85    1
   106    34    33    1
   107    33    32    1
   108    58    56   am
   109     4     3    2
   110    55    56    1
   111    55    52    1
   112   133   132    1
   113   132   131    1
   114    54    53    2
   115    56    57    2
   116    51    52    1
   117     3     2    1
   118   131   130    1
   119    52    53    1
   120     2     1    1
   121   130   127    1
   122   126   127    1
   123   127   128    1
   124   128   129    2
