@<TRIPOS>MOLECULE
tmp/1wsvB00.pdb
 193 185 0 0 0
SMALL
GASTEIGER

@<TRIPOS>ATOM
      1  N          5.9570   23.4680   22.5480 N.3    53  MET53      -0.1245
      2  CA         7.2170   23.0620   21.9380 C.3    53  MET53       0.1570
      3  C          8.2580   24.1670   22.0210 C.2    53  MET53       0.2261
      4  O          7.9310   25.3420   21.9230 O.2    53  MET53      -0.2867
      5  CB         7.0000   22.6840   20.4780 C.3    53  MET53       0.0387
      6  CG         6.1540   21.4450   20.2870 C.3    53  MET53       0.0595
      7  SD         6.5640   20.6420   18.7340 S.3    53  MET53      -0.1393
      8  CE         5.7400   21.7630   17.5270 C.3    53  MET53       0.0692
      9  N         14.4020   21.5800    7.3970 N.3    84  THR84      -0.1203
     10  CA        14.3770   20.1310    7.3400 C.3    84  THR84       0.1994
     11  C         14.2790   19.5210    8.7200 C.2    84  THR84       0.2617
     12  O         14.6210   20.1470    9.7260 O.2    84  THR84      -0.2717
     13  CB        15.6640   19.5640    6.6780 C.3    84  THR84       0.1784
     14  OG1       15.6510   18.1290    6.7340 O.3    84  THR84      -0.2211
     15  CG2       16.8970   20.0570    7.4080 C.3    84  THR84       0.0376
     16  N         13.8030   18.2860    8.7480 N.am   85  LEU85      -0.1979
     17  CA        13.7060   17.5360    9.9780 C.3    85  LEU85       0.1596
     18  C         15.1500   17.1160   10.2370 C.2    85  LEU85       0.2287
     19  O         15.8980   16.8330    9.2910 O.2    85  LEU85      -0.2864
     20  CB        12.8440   16.2930    9.7630 C.3    85  LEU85       0.0297
     21  CG        12.7600   15.3040   10.9270 C.3    85  LEU85       0.0022
     22  CD1       11.9600   15.9270   12.0570 C.3    85  LEU85       0.0001
     23  CD2       12.1100   14.0120   10.4640 C.3    85  LEU85       0.0001
     24  N         14.3960   14.9230   18.0960 N.3    98  ASP98      -0.1225
     25  CA        14.1990   15.2190   16.6910 C.3    98  ASP98       0.1805
     26  C         13.7100   16.6640   16.6720 C.2    98  ASP98       0.2598
     27  O         13.1140   17.1400   17.6410 O.2    98  ASP98      -0.2718
     28  CB        13.1870   14.2570   16.0420 C.3    98  ASP98       0.1424
     29  CG        11.8520   14.2150   16.7600 C.2    98  ASP98       0.3668
     30  OD1       11.7470   14.7490   17.8860 O.co2  98  ASP98      -0.2456
     31  OD2       10.9030   13.6290   16.1920 O.co2  98  ASP98      -0.2456
     32  N         13.9840   17.3700   15.5850 N.am   99  LEU99      -0.1966
     33  CA        13.6030   18.7690   15.4890 C.3    99  LEU99       0.1728
     34  C         13.5150   19.2070   14.0390 C.2    99  LEU99       0.2616
     35  O         13.8670   18.4610   13.1240 O.2    99  LEU99      -0.2715
     36  CB        14.6620   19.6240   16.1740 C.3    99  LEU99       0.0311
     37  CG        16.0330   19.4090   15.5140 C.3    99  LEU99       0.0022
     38  CD1       16.7830   20.7200   15.4210 C.3    99  LEU99       0.0001
     39  CD2       16.8360   18.3780   16.2940 C.3    99  LEU99       0.0001
     40  N         13.0380   20.4290   13.8400 N.am  100  ILE100     -0.1977
     41  CA        12.9560   21.0010   12.5100 C.3   100  ILE100      0.1596
     42  C         13.7680   22.2810   12.5920 C.2   100  ILE100      0.2287
     43  O         13.5360   23.1150   13.4680 O.2   100  ILE100     -0.2864
     44  CB        11.5050   21.3190   12.0900 C.3   100  ILE100      0.0276
     45  CG1       10.6700   20.0340   12.0870 C.3   100  ILE100      0.0022
     46  CG2       11.4910   21.9220   10.6960 C.3   100  ILE100      0.0022
     47  CD1        9.2590   20.1940   11.4940 C.3   100  ILE100      0.0001
     48  N         15.9670   29.0520   12.6370 N.3   110  TYR110     -0.1241
     49  CA        14.7270   28.8830   13.3800 C.3   110  TYR110      0.1605
     50  C         14.5920   27.3910   13.7340 C.2   110  TYR110      0.2264
     51  O         14.2650   26.5640   12.8810 O.2   110  TYR110     -0.2867
     52  CB        13.5600   29.3690   12.5180 C.3   110  TYR110      0.0534
     53  CG        12.1930   29.1690   13.1270 C.ar  110  TYR110     -0.0201
     54  CD1       11.8940   29.6530   14.3990 C.ar  110  TYR110     -0.0009
     55  CD2       11.1990   28.4810   12.4360 C.ar  110  TYR110     -0.0009
     56  CE1       10.6390   29.4510   14.9710 C.ar  110  TYR110      0.0417
     57  CE2        9.9430   28.2770   12.9980 C.ar  110  TYR110      0.0417
     58  CZ         9.6710   28.7600   14.2660 C.ar  110  TYR110      0.1957
     59  OH         8.4370   28.5280   14.8320 O.3   110  TYR110     -0.2866
     60  N         12.9020   24.2780   16.0510 N.3   112  VAL112     -0.1231
     61  CA        11.7450   23.8790   16.8420 C.3   112  VAL112      0.1692
     62  C         11.8790   22.4280   17.2900 C.2   112  VAL112      0.2593
     63  O         11.9140   21.5160   16.4670 O.2   112  VAL112     -0.2718
     64  CB        10.4470   24.0430   16.0320 C.3   112  VAL112      0.0266
     65  CG1        9.2420   23.6470   16.8770 C.3   112  VAL112      0.0020
     66  CG2       10.3220   25.4860   15.5560 C.3   112  VAL112      0.0020
     67  N         11.9620   22.2160   18.5990 N.am  113  SER113     -0.1938
     68  CA        12.1110   20.8700   19.1420 C.3   113  SER113      0.2055
     69  C         11.0190   20.5150   20.1470 C.2   113  SER113      0.2643
     70  O         10.2520   21.3760   20.5670 O.2   113  SER113     -0.2714
     71  CB        13.5000   20.7040   19.7700 C.3   113  SER113      0.2130
     72  OG        13.8340   21.8010   20.5920 O.3   113  SER113     -0.2179
     73  N         10.9610   19.2420   20.5300 N.am  114  ASN114     -0.1971
     74  CA         9.9370   18.7500   21.4470 C.3   114  ASN114      0.1688
     75  C          9.8380   19.4020   22.8140 C.2   114  ASN114      0.2292
     76  O         10.8410   19.6900   23.4570 O.2   114  ASN114     -0.2864
     77  CB        10.0790   17.2430   21.6140 C.3   114  ASN114      0.1181
     78  CG         9.6230   16.4880   20.3900 C.2   114  ASN114      0.2629
     79  OD1        8.4600   16.5770   19.9960 O.2   114  ASN114     -0.2716
     80  ND2       10.5350   15.7450   19.7740 N.am  114  ASN114     -0.0877
     81  N          6.3680   22.8000    0.6390 N.3   173  PHE173     -0.1227
     82  CA         6.6210   22.0360    1.8490 C.3   173  PHE173      0.1736
     83  C          8.0410   22.2970    2.3500 C.2   173  PHE173      0.2595
     84  O          9.0000   22.2600    1.5820 O.2   173  PHE173     -0.2718
     85  CB         6.4290   20.5500    1.5450 C.3   173  PHE173      0.0547
     86  CG         6.6100   19.6520    2.7270 C.ar  173  PHE173     -0.0202
     87  CD1        5.8470   19.8240    3.8720 C.ar  173  PHE173     -0.0042
     88  CD2        7.5050   18.5890    2.6690 C.ar  173  PHE173     -0.0042
     89  CE1        5.9670   18.9480    4.9420 C.ar  173  PHE173     -0.0003
     90  CE2        7.6330   17.7070    3.7310 C.ar  173  PHE173     -0.0003
     91  CZ         6.8620   17.8830    4.8710 C.ar  173  PHE173     -0.0000
     92  N          8.1500   22.5880    3.6400 N.am  174  MET174     -0.1979
     93  CA         9.4200   22.8450    4.2980 C.3   174  MET174      0.1605
     94  C         10.1010   24.1760    4.0100 C.2   174  MET174      0.2287
     95  O         11.3230   24.2780    4.0890 O.2   174  MET174     -0.2864
     96  CB        10.3940   21.7000    4.0340 C.3   174  MET174      0.0413
     97  CG         9.9100   20.3600    4.5600 C.3   174  MET174      0.0598
     98  SD         9.4030   20.4370    6.2890 S.3   174  MET174     -0.1393
     99  CE        10.9620   20.2530    7.1390 C.3   174  MET174      0.0692
    100  N          4.7830   23.1550    7.0630 N.3   192  CYS192     -0.1221
    101  CA         5.2080   21.9160    7.6880 C.3   192  CYS192      0.1808
    102  C          4.1060   21.3850    8.5760 C.2   192  CYS192      0.2602
    103  O          3.1310   22.0770    8.8480 O.2   192  CYS192     -0.2717
    104  CB         6.4900   22.1370    8.5060 C.3   192  CYS192      0.0970
    105  SG         6.3380   23.2350    9.9490 S.3   192  CYS192     -0.0800
    106  N          4.2610   20.1510    9.0310 N.am  193  GLY193     -0.1942
    107  CA         3.2420   19.5600    9.8730 C.3   193  GLY193      0.2014
    108  C          3.6930   18.2730   10.5270 C.2   193  GLY193      0.2638
    109  O          4.8390   17.8570   10.3850 O.2   193  GLY193     -0.2714
    110  N          2.7730   17.6350   11.2340 N.am  194  TYR194     -0.1973
    111  CA         3.0610   16.4080   11.9490 C.3   194  TYR194      0.1639
    112  C          1.8360   15.5380   11.7730 C.2   194  TYR194      0.2290
    113  O          1.5010   14.7460   12.6490 O.2   194  TYR194     -0.2864
    114  CB         3.2590   16.7390   13.4280 C.3   194  TYR194      0.0560
    115  CG         3.8160   15.6340   14.2900 C.ar  194  TYR194     -0.0198
    116  CD1        5.0750   15.0970   14.0380 C.ar  194  TYR194     -0.0009
    117  CD2        3.1160   15.1810   15.4080 C.ar  194  TYR194     -0.0009
    118  CE1        5.6300   14.1440   14.8800 C.ar  194  TYR194      0.0417
    119  CE2        3.6580   14.2260   16.2590 C.ar  194  TYR194      0.0417
    120  CZ         4.9200   13.7130   15.9900 C.ar  194  TYR194      0.1957
    121  OH         5.4840   12.7830   16.8320 O.3   194  TYR194     -0.2866
    122  N          2.3530   25.9150    9.9570 N.3   201  GLU201     -0.1245
    123  CA         2.5450   26.1830   11.3630 C.3   201  GLU201      0.1567
    124  C          2.8150   27.6690   11.4420 C.2   201  GLU201      0.2260
    125  O          3.6510   28.1930   10.7010 O.2   201  GLU201     -0.2867
    126  CB         3.7210   25.3970   11.9160 C.3   201  GLU201      0.0388
    127  CG         3.4340   23.9240   12.1050 C.3   201  GLU201      0.1160
    128  CD         4.4260   23.2860   13.0490 C.2   201  GLU201      0.3649
    129  OE1        5.3590   24.0020   13.4770 O.co2 201  GLU201     -0.2457
    130  OE2        4.2770   22.0870   13.3670 O.co2 201  GLU201     -0.2457
    131  N         -3.8310   14.2580   17.4090 N.3   230  ARG230     -0.1245
    132  CA        -2.5010   14.6050   16.9380 C.3   230  ARG230      0.1563
    133  C         -1.6390   13.3540   16.8600 C.2   230  ARG230      0.2260
    134  O         -0.8590   13.1810   15.9280 O.2   230  ARG230     -0.2867
    135  CB        -1.8420   15.6150   17.8840 C.3   230  ARG230      0.0307
    136  CG        -0.4110   15.9880   17.5060 C.3   230  ARG230      0.0489
    137  CD         0.1780   16.9650   18.5160 C.3   230  ARG230      0.2205
    138  NE         1.5750   17.3140   18.2580 N.pl3 230  ARG230     -0.0865
    139  CZ         1.9900   18.0640   17.2380 C.cat 230  ARG230      0.5346
    140  NH1        1.1150   18.5500   16.3650 N.pl3 230  ARG230      0.1354
    141  NH2        3.2830   18.3420   17.1000 N.pl3 230  ARG230      0.1354
    142  N          0.9020    8.6650    9.5130 N.3   237  ALA237     -0.1245
    143  CA         1.8400    9.3070    8.5990 C.3   237  ALA237      0.1562
    144  C          3.2260    8.6950    8.7270 C.2   237  ALA237      0.2260
    145  O          4.1170    8.9990    7.9360 O.2   237  ALA237     -0.2867
    146  CB         1.9030   10.8090    8.8660 C.3   237  ALA237      0.0290
    147  N          5.3100    9.1310   11.2230 N.3   239  LEU239     -0.1231
    148  CA         6.2470   10.0540   11.8330 C.3   239  LEU239      0.1693
    149  C          6.6240    9.5560   13.2110 C.2   239  LEU239      0.2592
    150  O          5.7930    8.9870   13.9150 O.2   239  LEU239     -0.2718
    151  CB         5.6120   11.4370   11.9290 C.3   239  LEU239      0.0284
    152  CG         4.9510   11.8950   10.6250 C.3   239  LEU239      0.0019
    153  CD1        4.3300   13.2790   10.8080 C.3   239  LEU239      0.0001
    154  CD2        5.9900   11.9150    9.5120 C.3   239  LEU239      0.0001
    155  N          7.8750    9.7790   13.5980 N.am  240  CYS240     -0.1970
    156  CA         8.3530    9.3440   14.9050 C.3   240  CYS240      0.1712
    157  C          7.8870   10.2300   16.0420 C.2   240  CYS240      0.2296
    158  O          7.7150   11.4440   15.8930 O.2   240  CYS240     -0.2864
    159  CB         9.8790    9.3130   14.9500 C.3   240  CYS240      0.0983
    160  SG        10.6740    8.0800   13.9210 S.3   240  CYS240     -0.0798
    161  N         17.7260    8.9040    5.9380 N.3   259  TRP259     -0.1241
    162  CA        17.6160   10.0270    5.0140 C.3   259  TRP259      0.1605
    163  C         17.8780   11.3760    5.6770 C.2   259  TRP259      0.2264
    164  O         18.1140   12.3660    4.9870 O.2   259  TRP259     -0.2867
    165  CB        16.2430   10.0490    4.3370 C.3   259  TRP259      0.0550
    166  CG        15.1190   10.2120    5.2850 C.ar  259  TRP259      0.0003
    167  CD1       14.4380    9.2230    5.9250 C.ar  259  TRP259      0.0946
    168  CD2       14.5470   11.4450    5.7250 C.ar  259  TRP259      0.0152
    169  NE1       13.4710    9.7620    6.7360 N.ar  259  TRP259     -0.2442
    170  CE2       13.5180   11.1260    6.6320 C.ar  259  TRP259      0.0810
    171  CE3       14.8060   12.7920    5.4400 C.ar  259  TRP259      0.0012
    172  CZ2       12.7410   12.1070    7.2600 C.ar  259  TRP259      0.0191
    173  CZ3       14.0320   13.7690    6.0640 C.ar  259  TRP259      0.0001
    174  CH2       13.0120   13.4160    6.9630 C.ar  259  TRP259      0.0015
    175  N          0.8230   10.4090    2.1360 N.3   366  THR366     -0.1218
    176  CA         0.9120   11.8080    2.5270 C.3   366  THR366      0.1862
    177  C          0.4520   12.7130    1.3870 C.2   366  THR366      0.2287
    178  O          0.3510   12.2720    0.2460 O.2   366  THR366     -0.2866
    179  CB         2.3490   12.1830    2.9290 C.3   366  THR366      0.1770
    180  OG1        3.2210   12.0280    1.8040 O.3   366  THR366     -0.2211
    181  CG2        2.8190   11.2960    4.0600 C.3   366  THR366      0.0375
    182  N          1.8090   16.1270    0.9880 N.3   368  TYR368     -0.1241
    183  CA         2.6740   17.2900    1.0870 C.3   368  TYR368      0.1605
    184  C          2.6510   18.0970   -0.1990 C.2   368  TYR368      0.2264
    185  O          2.8170   17.5550   -1.2900 O.2   368  TYR368     -0.2867
    186  CB         4.0990   16.8380    1.3980 C.3   368  TYR368      0.0534
    187  CG         4.2050   16.0820    2.7000 C.ar  368  TYR368     -0.0201
    188  CD1        5.1290   15.0460    2.8550 C.ar  368  TYR368     -0.0009
    189  CD2        3.3890   16.4090    3.7860 C.ar  368  TYR368     -0.0009
    190  CE1        5.2360   14.3520    4.0600 C.ar  368  TYR368      0.0417
    191  CE2        3.4880   15.7240    4.9950 C.ar  368  TYR368      0.0417
    192  CZ         4.4130   14.6970    5.1240 C.ar  368  TYR368      0.1957
    193  OH         4.5050   14.0130    6.3090 O.3   368  TYR368     -0.2866
@<TRIPOS>BOND
     1   185   184    2
     2   184   183    1
     3   178   177    2
     4    81    82    1
     5   182   183    1
     6   183   186    1
     7   177   176    1
     8   186   187    1
     9    85    82    1
    10    85    86    1
    11    84    83    2
    12   180   179    1
    13    82    83    1
    14   175   176    1
    15    83    92   am
    16   176   179    1
    17    88    86   ar
    18    88    90   ar
    19   187   188   ar
    20   187   189   ar
    21    86    87   ar
    22   188   190   ar
    23   179   181    1
    24    92    93    1
    25    90    91   ar
    26   189   191   ar
    27    87    89   ar
    28    94    95    2
    29    94    93    1
    30    96    93    1
    31    96    97    1
    32   190   192   ar
    33   165   162    1
    34   165   166    1
    35    97    98    1
    36    91    89   ar
    37   164   163    2
    38   191   192   ar
    39   162   163    1
    40   162   161    1
    41   192   193    1
    42   166   168   ar
    43   166   167   ar
    44   171   168   ar
    45   171   173   ar
    46   168   170   ar
    47   167   169   ar
    48   173   174   ar
    49    98    99    1
    50   170   169   ar
    51   170   172   ar
    52    13    14    1
    53    13    10    1
    54    13    15    1
    55   174   172   ar
    56   100   101    1
    57    10     9    1
    58    10    11    1
    59   101   104    1
    60   101   102    1
    61   145   144    2
    62   104   105    1
    63   102   103    2
    64   102   106   am
    65   143   144    1
    66   143   146    1
    67   143   142    1
    68    11    16   am
    69    11    12    2
    70    16    17    1
    71   106   107    1
    72    19    18    2
    73   154   152    1
    74    20    17    1
    75    20    21    1
    76   107   108    1
    77   122   123    1
    78    17    18    1
    79   109   108    2
    80    23    21    1
    81   108   110   am
    82   152   153    1
    83   152   151    1
    84    46    44    1
    85   125   124    2
    86    21    22    1
    87   147   148    1
    88   110   111    1
    89   123   124    1
    90   123   126    1
    91    47    45    1
    92   112   111    1
    93   112   113    2
    94   148   151    1
    95   148   149    1
    96   126   127    1
    97   111   114    1
    98    45    44    1
    99    44    41    1
   100   127   128    1
   101    55    57   ar
   102    55    53   ar
   103    41    42    1
   104    41    40    1
   105    52    53    1
   106    52    49    1
   107    42    43    2
   108    48    49    1
   109    51    50    2
   110    57    58   ar
   111   128   130   ar
   112   128   129   ar
   113    35    34    2
   114    53    54   ar
   115   149   155   am
   116   149   150    2
   117    49    50    1
   118   114   115    1
   119   155   156    1
   120    40    34   am
   121   160   159    1
   122   116   115   ar
   123   116   118   ar
   124    34    33    1
   125    58    59    1
   126    58    56   ar
   127   115   117   ar
   128    54    56   ar
   129   118   120   ar
   130   156   159    1
   131   156   157    1
   132   117   119   ar
   133    38    37    1
   134    33    32    1
   135    33    36    1
   136    37    36    1
   137    37    39    1
   138    66    64    1
   139    32    26   am
   140   158   157    2
   141   134   133    2
   142   120   119   ar
   143   120   121    1
   144    64    61    1
   145    64    65    1
   146    28    25    1
   147    28    29    1
   148    60    61    1
   149    31    29   ar
   150   140   139    1
   151    63    62    2
   152    26    25    1
   153    26    27    2
   154    25    24    1
   155    29    30   ar
   156    61    62    1
   157   133   132    1
   158   132   131    1
   159   132   135    1
   160   141   139    1
   161   139   138    2
   162    62    67   am
   163   136   135    1
   164   136   137    1
   165     8     7    1
   166   138   137    1
   167    67    68    1
   168     7     6    1
   169    68    71    1
   170    68    69    1
   171    71    72    1
   172    80    78   am
   173    79    78    2
   174    69    73   am
   175    69    70    2
   176     6     5    1
   177    78    77    1
   178     5     2    1
   179    73    74    1
   180    74    77    1
   181    74    75    1
   182     4     3    2
   183     2     3    1
   184     2     1    1
   185    75    76    2
