@<TRIPOS>MOLECULE
tmp/1wtaA00.pdb
 92 85 0 0 0
SMALL
GASTEIGER

@<TRIPOS>ATOM
      1  N         11.6570   18.8440   20.6000 N.3    94  ALA94      -0.1231
      2  CA        10.6700   19.3360   21.5590 C.3    94  ALA94       0.1694
      3  C          9.9500   18.1660   22.2190 C.2    94  ALA94       0.2592
      4  O          9.6220   17.1780   21.5600 O.2    94  ALA94      -0.2718
      5  CB         9.6440   20.2220   20.8610 C.3    94  ALA94       0.0304
      6  N          9.6710   18.3090   23.5110 N.am   95  VAL95      -0.1966
      7  CA         8.9370   17.3070   24.2900 C.3    95  VAL95       0.1727
      8  C          8.0480   17.9660   25.3420 C.2    95  VAL95       0.2616
      9  O          8.3650   19.0450   25.8500 O.2    95  VAL95      -0.2715
     10  CB         9.8770   16.3180   25.0380 C.3    95  VAL95       0.0290
     11  CG1       10.7220   15.5170   24.0610 C.3    95  VAL95       0.0023
     12  CG2       10.7700   17.0470   26.0590 C.3    95  VAL95       0.0023
     13  N          6.9400   17.3030   25.6640 N.am   96  GLY96      -0.1955
     14  CA         6.1400   17.6470   26.8200 C.3    96  GLY96       0.1869
     15  C          6.7270   17.0300   28.0700 C.2    96  GLY96       0.2309
     16  O          7.4020   16.0040   28.0190 O.2    96  GLY96      -0.2863
     17  N          4.5010    8.8740   21.3830 N.3   168  ILE168     -0.1245
     18  CA         3.1360    8.6470   20.9200 C.3   168  ILE168      0.1561
     19  C          3.0140    8.8720   19.4090 C.2   168  ILE168      0.2260
     20  O          3.8890    9.4710   18.7800 O.2   168  ILE168     -0.2867
     21  CB         2.1220    9.5170   21.7100 C.3   168  ILE168      0.0252
     22  CG1        2.3190   11.0150   21.4270 C.3   168  ILE168      0.0019
     23  CG2        2.2090    9.1960   23.2040 C.3   168  ILE168      0.0019
     24  CD1        1.1800   11.8820   21.8870 C.3   168  ILE168      0.0001
     25  N         -2.6350   15.5290   20.2090 N.3   173  PHE173     -0.1241
     26  CA        -2.0380   15.3960   21.5270 C.3   173  PHE173      0.1605
     27  C         -2.8570   14.4150   22.3780 C.2   173  PHE173      0.2264
     28  O         -4.0050   14.0810   22.0480 O.2   173  PHE173     -0.2867
     29  CB        -1.9390   16.7620   22.2230 C.3   173  PHE173      0.0534
     30  CG        -0.9160   17.6930   21.6200 C.ar  173  PHE173     -0.0203
     31  CD1        0.4450   17.4110   21.7030 C.ar  173  PHE173     -0.0042
     32  CD2       -1.3120   18.8720   20.9960 C.ar  173  PHE173     -0.0042
     33  CE1        1.3890   18.2820   21.1520 C.ar  173  PHE173     -0.0003
     34  CE2       -0.3740   19.7450   20.4510 C.ar  173  PHE173     -0.0003
     35  CZ         0.9760   19.4470   20.5230 C.ar  173  PHE173     -0.0000
     36  N          7.4080   13.3740   26.8240 N.3   191  ILE191     -0.1231
     37  CA         6.5550   12.8160   25.7830 C.3   191  ILE191      0.1692
     38  C          6.8310   13.5220   24.4590 C.2   191  ILE191      0.2593
     39  O          6.9150   14.7440   24.4020 O.2   191  ILE191     -0.2718
     40  CB         5.0680   12.9440   26.2030 C.3   191  ILE191      0.0266
     41  CG1        4.1250   12.4160   25.1120 C.3   191  ILE191      0.0019
     42  CG2        4.7310   14.3890   26.5830 C.3   191  ILE191      0.0020
     43  CD1        2.8040   11.9030   25.6700 C.3   191  ILE191      0.0001
     44  N          7.0110   12.7490   23.3980 N.am  192  GLY192     -0.1942
     45  CA         7.1500   13.3250   22.0730 C.3   192  GLY192      0.2014
     46  C          6.6150   12.3950   21.0130 C.2   192  GLY192      0.2638
     47  O          5.9990   11.3870   21.3430 O.2   192  GLY192     -0.2714
     48  N          6.8420   12.7370   19.7460 N.am  193  MET193     -0.1976
     49  CA         6.2480   11.9820   18.6410 C.3   193  MET193      0.1605
     50  C          7.2460   11.4270   17.6240 C.2   193  MET193      0.2287
     51  O          6.8670   10.5610   16.8350 O.2   193  MET193     -0.2864
     52  CB         5.2070   12.8390   17.9070 C.3   193  MET193      0.0413
     53  CG         4.0170   13.2540   18.7460 C.3   193  MET193      0.0598
     54  SD         2.8300   14.2670   17.8560 S.3   193  MET193     -0.1393
     55  CE         1.8230   14.8200   19.2330 C.3   193  MET193      0.0692
     56  N          8.8430   21.9070   26.3440 N.3   216  THR216     -0.1203
     57  CA         8.0700   23.0370   25.8130 C.3   216  THR216      0.1994
     58  C          6.7500   23.2650   26.5480 C.2   216  THR216      0.2617
     59  O          6.1390   24.3320   26.4070 O.2   216  THR216     -0.2717
     60  CB         7.7750   22.8470   24.3160 C.3   216  THR216      0.1784
     61  OG1        7.2410   21.5360   24.0620 O.3   216  THR216     -0.2211
     62  CG2        9.0620   22.8950   23.4940 C.3   216  THR216      0.0376
     63  N          6.3060   22.2570   27.2970 N.am  217  ASP217     -0.1973
     64  CA         4.9850   22.2460   27.9370 C.3   217  ASP217      0.1709
     65  C          4.8560   21.1150   28.9590 C.2   217  ASP217      0.2293
     66  O          5.7400   20.2670   29.0720 O.2   217  ASP217     -0.2864
     67  CB         3.8890   22.0440   26.8870 C.3   217  ASP217      0.1436
     68  CG         4.0480   20.7370   26.1390 C.2   217  ASP217      0.3671
     69  OD1        4.8580   20.7020   25.1880 O.co2 217  ASP217     -0.2456
     70  OD2        3.4370   19.6910   26.4410 O.co2 217  ASP217     -0.2456
     71  N          2.0680   19.0280   28.8090 N.3   219  ASP219     -0.1239
     72  CA         1.0150   18.2170   28.2010 C.3   219  ASP219      0.1674
     73  C         -0.3700   18.6600   28.7320 C.2   219  ASP219      0.2266
     74  O         -0.7370   19.8220   28.5610 O.2   219  ASP219     -0.2867
     75  CB         1.3240   16.7210   28.3930 C.3   219  ASP219      0.1410
     76  CG         0.4620   15.8200   27.5200 C.2   219  ASP219      0.3668
     77  OD1        0.2780   16.1350   26.3300 O.co2 219  ASP219     -0.2456
     78  OD2       -0.0660   14.7700   27.9520 O.co2 219  ASP219     -0.2456
     79  N         -1.5750   21.7270   26.4700 N.3   226  VAL226     -0.1245
     80  CA        -0.6350   22.0120   25.3890 C.3   226  VAL226      0.1561
     81  C         -1.3610   22.2830   24.0690 C.2   226  VAL226      0.2260
     82  O         -2.3950   21.6800   23.7820 O.2   226  VAL226     -0.2867
     83  CB         0.3710   20.8440   25.1970 C.3   226  VAL226      0.0252
     84  CG1       -0.3370   19.5340   24.8410 C.3   226  VAL226      0.0019
     85  CG2        1.4270   21.1940   24.1410 C.3   226  VAL226      0.0019
     86  N          3.9020   24.9700   21.8090 N.3   231  VAL231     -0.1245
     87  CA         5.1310   24.2040   21.5900 C.3   231  VAL231      0.1561
     88  C          6.1060   24.9900   20.7000 C.2   231  VAL231      0.2260
     89  O          7.2800   25.1460   21.0280 O.2   231  VAL231     -0.2867
     90  CB         4.8470   22.8080   20.9640 C.3   231  VAL231      0.0252
     91  CG1        6.1450   22.0950   20.5890 C.3   231  VAL231      0.0019
     92  CG2        4.0230   21.9340   21.9230 C.3   231  VAL231      0.0019
@<TRIPOS>BOND
     1    51    50    2
     2    50    49    1
     3    54    53    1
     4    54    55    1
     5    52    49    1
     6    52    53    1
     7    49    48    1
     8    20    19    2
     9    19    18    1
    10    48    46   am
    11    25    26    1
    12    34    35   ar
    13    34    32   ar
    14    35    33   ar
    15    91    90    1
    16     1     2    1
    17    88    89    2
    18    88    87    1
    19     5     2    1
    20    18    17    1
    21    18    21    1
    22    90    87    1
    23    90    92    1
    24    32    30   ar
    25    46    47    2
    26    46    45    1
    27    33    31   ar
    28    22    21    1
    29    22    24    1
    30    26    29    1
    31    26    27    1
    32     2     3    1
    33     4     3    2
    34    87    86    1
    35    30    31   ar
    36    30    29    1
    37    21    23    1
    38    28    27    2
    39    45    44    1
    40     3     6   am
    41    44    38   am
    42    62    60    1
    43     6     7    1
    44    82    81    2
    45    11    10    1
    46    61    60    1
    47    81    80    1
    48    85    83    1
    49     7    10    1
    50     7     8    1
    51    60    57    1
    52    39    38    2
    53    38    37    1
    54    84    83    1
    55    10    12    1
    56    41    43    1
    57    41    40    1
    58    69    68   ar
    59    83    80    1
    60     8    13   am
    61     8     9    2
    62    80    79    1
    63    13    14    1
    64    37    40    1
    65    37    36    1
    66    57    56    1
    67    57    58    1
    68    68    70   ar
    69    68    67    1
    70    40    42    1
    71    77    76   ar
    72    59    58    2
    73    58    63   am
    74    14    15    1
    75    67    64    1
    76    63    64    1
    77    76    78   ar
    78    76    75    1
    79    64    65    1
    80    16    15    2
    81    72    75    1
    82    72    73    1
    83    72    71    1
    84    74    73    2
    85    65    66    2
