@<TRIPOS>MOLECULE
tmp/1wtbB00.pdb
 200 194 0 0 0
SMALL
GASTEIGER

@<TRIPOS>ATOM
      1  N         -7.7090    5.0150   -2.1320 N.3     3  LYS3       -0.1245
      2  CA        -6.3850    4.4430   -2.2200 C.3     3  LYS3        0.1561
      3  C         -6.1750    3.5890   -1.0100 C.2     3  LYS3        0.2260
      4  O         -7.1330    3.2950   -0.3020 O.2     3  LYS3       -0.2867
      5  CB        -5.2750    5.4810   -2.4230 C.3     3  LYS3        0.0271
      6  CG        -5.1470    6.4940   -1.3330 C.3     3  LYS3        0.0035
      7  CD        -3.6910    6.7010   -1.0480 C.3     3  LYS3        0.0206
      8  CE        -3.0100    7.5770   -2.0680 C.3     3  LYS3        0.1093
      9  NZ        -3.7090    8.8790   -2.2500 N.3     3  LYS3       -0.1314
     10  N         -2.8370    2.3240    1.9050 N.3     5  PHE5       -0.1241
     11  CA        -1.4320    2.3380    2.2490 C.3     5  PHE5        0.1605
     12  C         -0.9730    1.0220    2.8730 C.2     5  PHE5        0.2264
     13  O         -1.0810    0.8220    4.0830 O.2     5  PHE5       -0.2867
     14  CB        -1.1050    3.5000    3.1940 C.3     5  PHE5        0.0534
     15  CG         0.0680    3.1920    4.0450 C.ar    5  PHE5       -0.0203
     16  CD1        1.2040    2.6940    3.4580 C.ar    5  PHE5       -0.0042
     17  CD2        0.0170    3.3520    5.4040 C.ar    5  PHE5       -0.0042
     18  CE1        2.3000    2.3560    4.2130 C.ar    5  PHE5       -0.0003
     19  CE2        1.1070    3.0150    6.1880 C.ar    5  PHE5       -0.0003
     20  CZ         2.2550    2.5130    5.5900 C.ar    5  PHE5       -0.0000
     21  N          1.7130   -1.1880    4.3750 N.3     7  GLY7       -0.1210
     22  CA         2.9920   -0.9320    5.0330 C.3     7  GLY7        0.1956
     23  C          4.1550   -1.7390    4.4610 C.2     7  GLY7        0.2612
     24  O          4.0330   -2.3600    3.4080 O.2     7  GLY7       -0.2717
     25  N          5.2890   -1.6810    5.1650 N.am    8  GLY8       -0.1956
     26  CA         6.5220   -2.3660    4.7650 C.3     8  GLY8        0.1869
     27  C          6.3220   -3.6000    3.9030 C.2     8  GLY8        0.2309
     28  O          5.2540   -4.2060    3.9030 O.2     8  GLY8       -0.2863
     29  N          1.9330    1.4380   -6.4210 N.3    32  GLU32      -0.1231
     30  CA         3.2010    2.1170   -6.1470 C.3    32  GLU32       0.1699
     31  C          3.9860    1.4120   -5.0390 C.2    32  GLU32       0.2592
     32  O          3.4470    1.1230   -3.9710 O.2    32  GLU32      -0.2718
     33  CB         2.9540    3.5750   -5.7450 C.3    32  GLU32       0.0402
     34  CG         1.6110    3.8070   -5.0750 C.3    32  GLU32       0.1161
     35  CD         0.4920    4.0280   -6.0750 C.2    32  GLU32       0.3649
     36  OE1        0.7840    4.4650   -7.2070 O.co2  32  GLU32      -0.2457
     37  OE2       -0.6770    3.7630   -5.7240 O.co2  32  GLU32      -0.2457
     38  N          5.2650    1.1420   -5.3010 N.am   33  LEU33      -0.1966
     39  CA         6.1270    0.4790   -4.3260 C.3    33  LEU33       0.1713
     40  C          7.3010    1.3760   -3.9310 C.2    33  LEU33       0.2458
     41  O          8.2510    1.5470   -4.6960 O.2    33  LEU33      -0.2730
     42  CB         6.6490   -0.8420   -4.8920 C.3    33  LEU33       0.0310
     43  CG         5.6380   -1.9880   -4.8970 C.3    33  LEU33       0.0022
     44  CD1        4.8500   -2.0090   -3.5960 C.3    33  LEU33       0.0001
     45  CD2        4.7030   -1.8640   -6.0910 C.3    33  LEU33       0.0001
     46  N          7.2350    1.9650   -2.7270 N.am   34  PRO34      -0.2716
     47  CA         8.2770    2.8590   -2.2030 C.3    34  PRO34       0.1536
     48  C          9.6880    2.2950   -2.3230 C.2    34  PRO34       0.2598
     49  O          9.9640    1.4210   -3.1450 O.2    34  PRO34      -0.2715
     50  CB         7.9050    3.0070   -0.7310 C.3    34  PRO34       0.0310
     51  CG         6.4360    2.7970   -0.6880 C.3    34  PRO34       0.0237
     52  CD         6.1160    1.8130   -1.7800 C.3    34  PRO34       0.0939
     53  N         10.5800    2.8200   -1.4890 N.am   35  MET35      -0.1978
     54  CA        11.9770    2.4020   -1.4740 C.3    35  MET35       0.1605
     55  C         12.8470    3.4850   -0.8390 C.2    35  MET35       0.2287
     56  O         12.8210    4.6400   -1.2630 O.2    35  MET35      -0.2864
     57  CB        12.4540    2.1220   -2.8970 C.3    35  MET35       0.0413
     58  CG        12.0220    3.1870   -3.8880 C.3    35  MET35       0.0598
     59  SD        11.4320    2.4960   -5.4440 S.3    35  MET35      -0.1393
     60  CE        11.8190    3.8330   -6.5710 C.3    35  MET35       0.0692
     61  N         14.8010    8.1200   -1.4380 N.3    38  LYS38      -0.1231
     62  CA        14.5320    9.5570   -1.4470 C.3    38  LYS38       0.1693
     63  C         14.7430   10.1660   -0.0770 C.2    38  LYS38       0.2592
     64  O         14.9290   11.3760    0.0560 O.2    38  LYS38      -0.2718
     65  CB        13.1060    9.8310   -1.9250 C.3    38  LYS38       0.0285
     66  CG        12.6560    8.9140   -3.0500 C.3    38  LYS38       0.0035
     67  CD        12.6050    9.6510   -4.3780 C.3    38  LYS38       0.0206
     68  CE        13.9830    9.7620   -5.0080 C.3    38  LYS38       0.1093
     69  NZ        14.3390    8.5450   -5.7890 N.3    38  LYS38      -0.1314
     70  N         14.6740    9.3320    0.9420 N.am   39  THR39      -0.1953
     71  CA        14.8190    9.8040    2.3080 C.3    39  THR39       0.1897
     72  C         15.7250    8.8930    3.1370 C.2    39  THR39       0.2313
     73  O         16.2090    9.2920    4.1970 O.2    39  THR39      -0.2863
     74  CB        13.4330    9.9260    2.9360 C.3    39  THR39       0.1794
     75  OG1       13.1800    8.8430    3.8130 O.3    39  THR39      -0.2208
     76  CG2       12.3220    9.9550    1.8990 C.3    39  THR39       0.0378
     77  N         14.9820    5.8040    4.5880 N.3    41  LYS41      -0.1231
     78  CA        14.3460    5.3040    5.7930 C.3    41  LYS41       0.1693
     79  C         13.9110    3.8480    5.6190 C.2    41  LYS41       0.2592
     80  O         14.4720    3.1270    4.7930 O.2    41  LYS41      -0.2718
     81  CB        13.1930    6.2290    6.1810 C.3    41  LYS41       0.0285
     82  CG        11.8330    5.8220    5.6470 C.3    41  LYS41       0.0035
     83  CD        11.2970    6.8630    4.6770 C.3    41  LYS41       0.0206
     84  CE        11.1270    8.2160    5.3490 C.3    41  LYS41       0.1093
     85  NZ        10.1070    8.1760    6.4310 N.3    41  LYS41      -0.1314
     86  N         12.9280    3.4080    6.3980 N.am   42  ARG42      -0.1966
     87  CA        12.4530    2.0400    6.3200 C.3    42  ARG42       0.1729
     88  C         11.4060    1.9010    5.2340 C.2    42  ARG42       0.2616
     89  O         11.3620    0.8880    4.5380 O.2    42  ARG42      -0.2715
     90  CB        11.8720    1.6270    7.6730 C.3    42  ARG42       0.0348
     91  CG        10.3680    1.8150    7.7750 C.3    42  ARG42       0.0492
     92  CD         9.6270    0.5100    7.5450 C.3    42  ARG42       0.2205
     93  NE         9.9860   -0.1270    6.2710 N.pl3  42  ARG42      -0.0865
     94  CZ        10.9450   -1.0460    6.1380 C.cat  42  ARG42       0.5346
     95  NH1       11.6400   -1.4620    7.1910 N.pl3  42  ARG42       0.1354
     96  NH2       11.2040   -1.5600    4.9440 N.pl3  42  ARG42       0.1354
     97  N         10.5530    2.9280    5.1270 N.am   43  ARG43      -0.1977
     98  CA         9.4620    2.9660    4.1730 C.3    43  ARG43       0.1597
     99  C          9.3590    1.6610    3.4050 C.2    43  ARG43       0.2287
    100  O          8.9290    0.6490    3.9570 O.2    43  ARG43      -0.2864
    101  CB         9.6190    4.1660    3.2300 C.3    43  ARG43       0.0334
    102  CG        11.0320    4.3730    2.7020 C.3    43  ARG43       0.0492
    103  CD        11.0180    5.0950    1.3680 C.3    43  ARG43       0.2205
    104  NE        10.3570    6.3940    1.4540 N.pl3  43  ARG43      -0.0865
    105  CZ        10.6180    7.4060    0.6350 C.cat  43  ARG43       0.5346
    106  NH1       11.5090    7.2590   -0.3360 N.pl3  43  ARG43       0.1354
    107  NH2        9.9900    8.5640    0.7830 N.pl3  43  ARG43       0.1354
    108  N          7.3690    0.0100    1.2810 N.3    45  PHE45      -0.1241
    109  CA         6.1380   -0.7120    1.5410 C.3    45  PHE45       0.1605
    110  C          5.3220   -0.7610    0.2410 C.2    45  PHE45       0.2264
    111  O          5.8560   -1.1320   -0.8040 O.2    45  PHE45      -0.2867
    112  CB         5.3720   -0.0040    2.6600 C.3    45  PHE45       0.0534
    113  CG         5.4010    1.4780    2.5050 C.ar   45  PHE45      -0.0203
    114  CD1        6.4300    2.1970    3.0590 C.ar   45  PHE45      -0.0042
    115  CD2        4.4470    2.1470    1.7580 C.ar   45  PHE45      -0.0042
    116  CE1        6.5230    3.5520    2.8790 C.ar   45  PHE45      -0.0003
    117  CE2        4.5270    3.5060    1.5840 C.ar   45  PHE45      -0.0003
    118  CZ         5.5680    4.2110    2.1390 C.ar   45  PHE45      -0.0000
    119  N          1.4770    0.9290   -1.8910 N.3    47  PHE47      -0.1241
    120  CA         0.3210    1.7970   -1.9460 C.3    47  PHE47       0.1605
    121  C         -0.5070    1.4230   -3.1430 C.2    47  PHE47       0.2264
    122  O         -0.0140    1.4140   -4.2710 O.2    47  PHE47      -0.2867
    123  CB         0.7070    3.2650   -2.0880 C.3    47  PHE47       0.0534
    124  CG         0.7220    4.0580   -0.8280 C.ar   47  PHE47      -0.0203
    125  CD1        1.6100    3.7770    0.1970 C.ar   47  PHE47      -0.0042
    126  CD2       -0.1400    5.1260   -0.6870 C.ar   47  PHE47      -0.0042
    127  CE1        1.6290    4.5560    1.3370 C.ar   47  PHE47      -0.0003
    128  CE2       -0.1140    5.8900    0.4470 C.ar   47  PHE47      -0.0003
    129  CZ         0.7660    5.6110    1.4550 C.ar   47  PHE47      -0.0000
    130  N         -3.9820   -5.9110    6.6150 N.3    64  TYR64      -0.1241
    131  CA        -2.7980   -6.7450    6.4690 C.3    64  TYR64       0.1605
    132  C         -2.9580   -7.6970    5.2830 C.2    64  TYR64       0.2264
    133  O         -3.1830   -8.8950    5.4590 O.2    64  TYR64      -0.2867
    134  CB        -2.5280   -7.5280    7.7500 C.3    64  TYR64       0.0534
    135  CG        -2.3550   -6.6540    8.9700 C.ar   64  TYR64      -0.0201
    136  CD1       -1.6430   -5.4590    8.9070 C.ar   64  TYR64      -0.0009
    137  CD2       -2.9020   -7.0280   10.1900 C.ar   64  TYR64      -0.0009
    138  CE1       -1.4850   -4.6650   10.0300 C.ar   64  TYR64       0.0417
    139  CE2       -2.7480   -6.2390   11.3150 C.ar   64  TYR64       0.0417
    140  CZ        -2.0380   -5.0600   11.2290 C.ar   64  TYR64       0.1957
    141  OH        -1.8820   -4.2730   12.3470 O.3    64  TYR64      -0.2866
    142  N          3.2930   -8.7540    2.3050 N.3    71  LYS71      -0.1231
    143  CA         2.0640   -8.4700    3.0440 C.3    71  LYS71       0.1693
    144  C          2.2940   -7.2490    3.9340 C.2    71  LYS71       0.2592
    145  O          3.3860   -7.0920    4.4810 O.2    71  LYS71      -0.2718
    146  CB         1.6690   -9.6810    3.9010 C.3    71  LYS71       0.0285
    147  CG         2.2470  -10.9930    3.3980 C.3    71  LYS71       0.0035
    148  CD         3.4430  -11.4290    4.2270 C.3    71  LYS71       0.0206
    149  CE         3.0150  -12.1730    5.4800 C.3    71  LYS71       0.1093
    150  NZ         3.9490  -13.2860    5.8080 N.3    71  LYS71      -0.1314
    151  N          1.3010   -6.3640    4.0750 N.am   72  CYS72      -0.1956
    152  CA         1.5130   -5.1760    4.9010 C.3    72  CYS72       0.1843
    153  C          0.2260   -4.5430    5.4160 C.2    72  CYS72       0.2625
    154  O         -0.8740   -4.8590    4.9610 O.2    72  CYS72      -0.2714
    155  CB         2.3100   -4.1320    4.1280 C.3    72  CYS72       0.0997
    156  SG         2.9450   -4.7120    2.5420 S.3    72  CYS72      -0.0797
    157  N          0.4000   -3.6280    6.3710 N.am   73  GLU73      -0.1977
    158  CA        -0.7050   -2.9020    6.9820 C.3    73  GLU73       0.1602
    159  C         -1.2620   -1.8750    6.0190 C.2    73  GLU73       0.2287
    160  O         -0.7550   -0.7610    5.8940 O.2    73  GLU73      -0.2864
    161  CB        -0.2320   -2.2350    8.2650 C.3    73  GLU73       0.0415
    162  CG        -1.3460   -1.6120    9.0890 C.3    73  GLU73       0.1163
    163  CD        -0.8290   -0.9730   10.3640 C.2    73  GLU73       0.3649
    164  OE1        0.2010   -0.2670   10.2970 O.co2  73  GLU73      -0.2457
    165  OE2       -1.4520   -1.1770   11.4260 O.co2  73  GLU73      -0.2457
    166  N         -3.4770    0.5770    5.4920 N.3    75  LYS75      -0.1231
    167  CA        -4.3260    1.6150    6.0670 C.3    75  LYS75       0.1693
    168  C         -4.6810    2.5830    4.9540 C.2    75  LYS75       0.2592
    169  O         -3.7760    3.0780    4.3030 O.2    75  LYS75      -0.2718
    170  CB        -3.5800    2.3440    7.1880 C.3    75  LYS75       0.0285
    171  CG        -2.8690    1.4010    8.1490 C.3    75  LYS75       0.0035
    172  CD        -1.3650    1.6550    8.1830 C.3    75  LYS75       0.0206
    173  CE        -0.9830    2.6740    9.2480 C.3    75  LYS75       0.1093
    174  NZ        -2.1740    3.2490    9.9340 N.3    75  LYS75      -0.1314
    175  N         -5.9700    2.8300    4.6760 N.am   76  VAL76      -0.1966
    176  CA        -6.2920    3.7190    3.5560 C.3    76  VAL76       0.1727
    177  C         -5.3070    4.8550    3.4670 C.2    76  VAL76       0.2616
    178  O         -5.3550    5.8500    4.1900 O.2    76  VAL76      -0.2715
    179  CB        -7.7200    4.2770    3.5080 C.3    76  VAL76       0.0290
    180  CG1       -7.8470    5.5050    4.3950 C.3    76  VAL76       0.0023
    181  CG2       -8.0570    4.6150    2.0480 C.3    76  VAL76       0.0023
    182  N         -4.3960    4.6380    2.5740 N.am   77  ALA77      -0.1963
    183  CA        -3.3300    5.5190    2.2890 C.3    77  ALA77       0.1728
    184  C         -3.7690    6.9630    2.1820 C.2    77  ALA77       0.2616
    185  O         -4.9110    7.3300    2.4610 O.2    77  ALA77      -0.2715
    186  CB        -2.6970    5.0540    0.9950 C.3    77  ALA77       0.0334
    187  N         -2.8220    7.7570    1.7470 N.am   78  MET78      -0.1963
    188  CA        -3.0100    9.1880    1.5400 C.3    78  MET78       0.1736
    189  C         -1.6790    9.8640    1.2270 C.2    78  MET78       0.2617
    190  O         -0.6390    9.4850    1.7650 O.2    78  MET78      -0.2715
    191  CB        -3.6490    9.8370    2.7710 C.3    78  MET78       0.0427
    192  CG        -3.4650    9.0430    4.0520 C.3    78  MET78       0.0599
    193  SD        -2.9720   10.0770    5.4450 S.3    78  MET78      -0.1393
    194  CE        -2.1290    8.8750    6.4720 C.3    78  MET78       0.0692
    195  N         -1.7140   10.8640    0.3520 N.am   79  SER79      -0.1950
    196  CA        -0.5040   11.5860   -0.0280 C.3    79  SER79       0.1924
    197  C         -0.5630   13.0320    0.4530 C.2    79  SER79       0.2314
    198  O         -1.4810   13.4200    1.1750 O.2    79  SER79      -0.2863
    199  CB        -0.3110   11.5470   -1.5450 C.3    79  SER79       0.2116
    200  OG         1.0460   11.3100   -1.8790 O.3    79  SER79      -0.2180
@<TRIPOS>BOND
     1    36    35   ar
     2    60    59    1
     3    29    30    1
     4    30    33    1
     5    30    31    1
     6    45    43    1
     7    35    37   ar
     8    35    34    1
     9    69    68    1
    10    33    34    1
    11    59    58    1
    12    38    31   am
    13    38    39    1
    14    31    32    2
    15    68    67    1
    16    43    42    1
    17    43    44    1
    18    42    39    1
    19    41    40    2
    20    67    66    1
    21    39    40    1
    22   122   121    2
    23    40    46   am
    24    58    57    1
    25    49    48    2
    26   121   120    1
    27    66    65    1
    28    57    54    1
    29    46    47    1
    30    46    52    1
    31     5     2    1
    32     5     6    1
    33    48    47    1
    34    48    53   am
    35     9     8    1
    36     2     1    1
    37     2     3    1
    38    47    50    1
    39   123   120    1
    40   123   124    1
    41     8     7    1
    42   120   119    1
    43    65    62    1
    44   200   199    1
    45    52    51    1
    46   199   196    1
    47    53    54    1
    48    54    55    1
    49    62    61    1
    50    62    63    1
    51     6     7    1
    52    56    55    2
    53     3     4    2
    54   124   126   ar
    55   124   125   ar
    56   111   110    2
    57    50    51    1
    58   126   128   ar
    59   106   105    1
    60    63    64    2
    61    63    70   am
    62   196   195    1
    63   196   197    1
    64   125   127   ar
    65   110   109    1
    66   195   189   am
    67   128   129   ar
    68   197   198    2
    69   105   107    1
    70   105   104    2
    71    70    71    1
    72   186   183    1
    73   189   188    1
    74   189   190    2
    75   108   109    1
    76   127   129   ar
    77   103   104    1
    78   103   102    1
    79   188   187    1
    80   188   191    1
    81   109   112    1
    82   117   115   ar
    83   117   118   ar
    84   187   184   am
    85   115   113   ar
    86    76    74    1
    87    10    11    1
    88   181   179    1
    89   118   116   ar
    90   184   183    1
    91   184   185    2
    92    11    12    1
    93    11    14    1
    94   183   182    1
    95   142   143    1
    96    71    74    1
    97    71    72    1
    98   113   112    1
    99   113   114   ar
   100   156   155    1
   101   182   177   am
   102   102   101    1
   103   191   192    1
   104    12    13    2
   105   116   114   ar
   106    74    75    1
   107   143   146    1
   108   143   144    1
   109    72    73    2
   110    14    15    1
   111   101    98    1
   112   147   146    1
   113   147   148    1
   114    99   100    2
   115    99    98    1
   116    24    23    2
   117    16    15   ar
   118    16    18   ar
   119   177   176    1
   120   177   178    2
   121   179   176    1
   122   179   180    1
   123   176   175    1
   124    27    28    2
   125    27    26    1
   126   144   151   am
   127   144   145    2
   128    15    17   ar
   129   192   193    1
   130   151   152    1
   131   155   152    1
   132    98    97    1
   133    18    20   ar
   134   148   149    1
   135   169   168    2
   136    21    22    1
   137    23    22    1
   138    23    25   am
   139    89    88    2
   140    77    78    1
   141   175   168   am
   142    83    84    1
   143    83    82    1
   144    26    25    1
   145    80    79    2
   146   152   153    1
   147    96    94    1
   148   168   167    1
   149   154   153    2
   150    97    88   am
   151    88    87    1
   152   132   133    2
   153   132   131    1
   154    84    85    1
   155    17    19   ar
   156   153   157   am
   157   193   194    1
   158   149   150    1
   159   166   167    1
   160    20    19   ar
   161    79    78    1
   162    79    86   am
   163    82    81    1
   164    78    81    1
   165   160   159    2
   166   159   158    1
   167   167   170    1
   168    94    93    2
   169    94    95    1
   170    93    92    1
   171    87    86    1
   172    87    90    1
   173   157   158    1
   174   131   130    1
   175   131   134    1
   176   158   161    1
   177   170   171    1
   178    92    91    1
   179    90    91    1
   180   134   135    1
   181   171   172    1
   182   172   173    1
   183   161   162    1
   184   136   135   ar
   185   136   138   ar
   186   135   137   ar
   187   162   163    1
   188   173   174    1
   189   138   140   ar
   190   137   139   ar
   191   164   163   ar
   192   163   165   ar
   193   140   139   ar
   194   140   141    1
