@<TRIPOS>MOLECULE
tmp/1wtcA01.pdb
 109 103 0 0 0
SMALL
GASTEIGER

@<TRIPOS>ATOM
      1  N          3.9880   43.9640   28.2570 N.3    20  ASN20      -0.1240
      2  CA         3.3120   43.7360   26.9830 C.3    20  ASN20       0.1653
      3  C          4.3420   43.1970   26.0000 C.2    20  ASN20       0.2266
      4  O          5.4950   43.6260   26.0100 O.2    20  ASN20      -0.2867
      5  CB         2.7320   45.0350   26.3930 C.3    20  ASN20       0.1155
      6  CG         1.4140   45.4460   27.0330 C.2    20  ASN20       0.2627
      7  OD1        0.6830   44.6160   27.5690 O.2    20  ASN20      -0.2716
      8  ND2        1.0930   46.7350   26.9490 N.am   20  ASN20      -0.0877
      9  N          4.2310   51.0730   22.6500 N.3    45  PHE45      -0.1227
     10  CA         3.0160   50.3240   22.9940 C.3    45  PHE45       0.1736
     11  C          3.1280   49.5310   24.2930 C.2    45  PHE45       0.2595
     12  O          2.1910   48.8280   24.6840 O.2    45  PHE45      -0.2718
     13  CB         2.6360   49.3580   21.8640 C.3    45  PHE45       0.0547
     14  CG         2.1740   50.0420   20.6100 C.ar   45  PHE45      -0.0202
     15  CD1        1.0160   50.8110   20.6100 C.ar   45  PHE45      -0.0042
     16  CD2        2.9100   49.9340   19.4320 C.ar   45  PHE45      -0.0042
     17  CE1        0.5920   51.4700   19.4590 C.ar   45  PHE45      -0.0003
     18  CE2        2.4960   50.5870   18.2750 C.ar   45  PHE45      -0.0003
     19  CZ         1.3330   51.3580   18.2890 C.ar   45  PHE45      -0.0000
     20  N          4.2820   49.6380   24.9400 N.am   46  GLN46      -0.1965
     21  CA         4.5800   48.9670   26.2010 C.3    46  GLN46       0.1733
     22  C          3.7530   49.6230   27.3120 C.2    46  GLN46       0.2616
     23  O          3.2580   50.7370   27.1440 O.2    46  GLN46      -0.2715
     24  CB         6.0770   49.1250   26.5050 C.3    46  GLN46       0.0408
     25  CG         6.5920   48.4460   27.7860 C.3    46  GLN46       0.0908
     26  CD         6.2780   46.9600   27.8180 C.2    46  GLN46       0.2608
     27  OE1        5.3150   46.5280   28.4600 O.2    46  GLN46      -0.2717
     28  NE2        7.0800   46.1690   27.1070 N.am   46  GLN46      -0.0878
     29  N          3.5860   48.9250   28.4310 N.am   47  LYS47      -0.1963
     30  CA         2.8510   49.4850   29.5720 C.3    47  LYS47       0.1728
     31  C          3.4850   50.8270   29.8840 C.2    47  LYS47       0.2616
     32  O          4.7080   50.9280   29.8720 O.2    47  LYS47      -0.2715
     33  CB         3.0030   48.5860   30.8030 C.3    47  LYS47       0.0311
     34  CG         2.3890   47.2100   30.6610 C.3    47  LYS47       0.0038
     35  CD         0.8790   47.2780   30.6910 C.3    47  LYS47       0.0206
     36  CE         0.2890   45.9000   30.9160 C.3    47  LYS47       0.1093
     37  NZ        -1.1770   45.9530   31.0550 N.3    47  LYS47      -0.1314
     38  N          2.6620   51.8430   30.1580 N.am   48  MET48      -0.1963
     39  CA         3.1400   53.1960   30.4880 C.3    48  MET48       0.1736
     40  C          3.6550   53.9810   29.2730 C.2    48  MET48       0.2617
     41  O          4.0080   55.1560   29.3990 O.2    48  MET48      -0.2715
     42  CB         4.3030   53.1490   31.4570 C.3    48  MET48       0.0427
     43  CG         5.5740   53.0730   30.6130 C.3    48  MET48       0.0599
     44  SD         6.9720   53.5780   31.3310 S.3    48  MET48      -0.1393
     45  CE         6.7950   55.3610   31.3180 C.3    48  MET48       0.0692
     46  N          3.7820   53.3140   28.1300 N.am   49  GLY49      -0.1955
     47  CA         4.2450   53.9920   26.9300 C.3    49  GLY49       0.1869
     48  C          5.7300   54.0020   26.5890 C.2    49  GLY49       0.2309
     49  O          6.1280   54.7030   25.6610 O.2    49  GLY49      -0.2863
     50  N          7.4810   57.2450   35.7050 N.3    82  GLN82      -0.1245
     51  CA         6.1900   56.5770   35.5790 C.3    82  GLN82       0.1566
     52  C          6.3730   55.0730   35.4540 C.2    82  GLN82       0.2260
     53  O          5.4530   54.3100   35.7430 O.2    82  GLN82      -0.2867
     54  CB         5.3910   57.1150   34.3850 C.3    82  GLN82       0.0367
     55  CG         4.8790   58.5490   34.5850 C.3    82  GLN82       0.0905
     56  CD         6.0130   59.5470   34.7100 C.2    82  GLN82       0.2608
     57  OE1        6.8970   59.5840   33.8620 O.2    82  GLN82      -0.2717
     58  NE2        5.9930   60.3630   35.7700 N.am   82  GLN82      -0.0878
     59  N          4.1120   52.8650   37.9910 N.3    86  LEU86      -0.1245
     60  CA         3.2240   51.7850   37.5850 C.3    86  LEU86       0.1561
     61  C          3.6930   50.4200   38.0730 C.2    86  LEU86       0.2260
     62  O          2.8870   49.6080   38.5220 O.2    86  LEU86      -0.2867
     63  CB         3.0660   51.7610   36.0610 C.3    86  LEU86       0.0270
     64  CG         2.2440   50.6000   35.4860 C.3    86  LEU86       0.0019
     65  CD1        0.8140   50.6440   36.0250 C.3    86  LEU86       0.0001
     66  CD2        2.2630   50.6830   33.9600 C.3    86  LEU86       0.0001
     67  N         -0.8520   66.0990   31.9250 N.3   106  ALA106     -0.1245
     68  CA        -1.0180   64.6960   31.5540 C.3   106  ALA106      0.1562
     69  C         -0.0670   63.7600   32.3000 C.2   106  ALA106      0.2260
     70  O         -0.4630   62.6770   32.7330 O.2   106  ALA106     -0.2867
     71  CB        -0.8270   64.5360   30.0610 C.3   106  ALA106      0.0290
     72  N         -1.2100   63.5800   35.9650 N.3   109  ALA109     -0.1231
     73  CA        -2.4110   62.7660   36.0790 C.3   109  ALA109      0.1694
     74  C         -2.0780   61.2870   35.8810 C.2   109  ALA109      0.2591
     75  O         -2.6520   60.4190   36.5390 O.2   109  ALA109     -0.2718
     76  CB        -3.4420   63.2090   35.0490 C.3   109  ALA109      0.0304
     77  N         -1.1560   61.0000   34.9680 N.am  110  ALA110     -0.1980
     78  CA        -0.7770   59.6210   34.7010 C.3   110  ALA110      0.1597
     79  C         -0.1450   59.0270   35.9460 C.2   110  ALA110      0.2287
     80  O         -0.4600   57.9070   36.3560 O.2   110  ALA110     -0.2864
     81  CB         0.2140   59.5580   33.5320 C.3   110  ALA110      0.0319
     82  N         -2.5890   58.4690   38.5410 N.3   113  GLY113     -0.1210
     83  CA        -3.4420   57.3900   38.0900 C.3   113  GLY113      0.1956
     84  C         -2.7480   56.0750   38.3890 C.2   113  GLY113      0.2611
     85  O         -3.4030   55.0460   38.5550 O.2   113  GLY113     -0.2717
     86  N         -1.4170   56.1100   38.4620 N.am  114  TYR114     -0.1976
     87  CA        -0.6400   54.9140   38.7710 C.3   114  TYR114      0.1639
     88  C         -0.4210   54.7860   40.2770 C.2   114  TYR114      0.2290
     89  O          0.3960   53.9770   40.7220 O.2   114  TYR114     -0.2864
     90  CB         0.7250   54.9370   38.0830 C.3   114  TYR114      0.0560
     91  CG         0.6840   54.9040   36.5820 C.ar  114  TYR114     -0.0198
     92  CD1       -0.2030   54.0700   35.9050 C.ar  114  TYR114     -0.0009
     93  CD2        1.5700   55.6780   35.8320 C.ar  114  TYR114     -0.0009
     94  CE1       -0.2050   54.0040   34.5130 C.ar  114  TYR114      0.0417
     95  CE2        1.5780   55.6230   34.4480 C.ar  114  TYR114      0.0417
     96  CZ         0.6920   54.7870   33.7920 C.ar  114  TYR114      0.1957
     97  OH         0.7030   54.7350   32.4130 O.3   114  TYR114     -0.2866
     98  N          6.5980   56.4050   23.3500 N.3   305  GLY305     -0.1210
     99  CA         5.6850   57.3280   22.7000 C.3   305  GLY305      0.1956
    100  C          5.0950   58.3590   23.6450 C.2   305  GLY305      0.2611
    101  O          4.0070   58.8800   23.4000 O.2   305  GLY305     -0.2717
    102  N          5.8100   58.6770   24.7170 N.am  306  ASN306     -0.1974
    103  CA         5.2980   59.6440   25.6830 C.3   306  ASN306      0.1688
    104  C          5.7910   61.0520   25.4010 C.2   306  ASN306      0.2292
    105  O          6.7800   61.5090   25.9580 O.2   306  ASN306     -0.2864
    106  CB         5.6710   59.2370   27.1090 C.3   306  ASN306      0.1181
    107  CG         5.0890   57.8860   27.4930 C.2   306  ASN306      0.2629
    108  OD1        3.9800   57.5540   27.0890 O.2   306  ASN306     -0.2716
    109  ND2        5.8300   57.1100   28.2870 N.am  306  ASN306     -0.0877
@<TRIPOS>BOND
     1    18    19   ar
     2    18    16   ar
     3    19    17   ar
     4    16    14   ar
     5    17    15   ar
     6    15    14   ar
     7    14    13    1
     8    13    10    1
     9     9    10    1
    10    99    98    1
    11    99   100    1
    12    10    11    1
    13   101   100    2
    14   100   102   am
    15    11    12    2
    16    11    20   am
    17   102   103    1
    18    20    21    1
    19   104   103    1
    20   104   105    2
    21    49    48    2
    22   103   106    1
    23     3     4    2
    24     3     2    1
    25    21    24    1
    26    21    22    1
    27     5     2    1
    28     5     6    1
    29    24    25    1
    30    48    47    1
    31    47    46    1
    32     8     6   am
    33     2     1    1
    34     6     7    2
    35   108   107    2
    36    28    26   am
    37   106   107    1
    38    23    22    2
    39    22    29   am
    40   107   109   am
    41    25    26    1
    42    26    27    2
    43    46    40   am
    44    29    30    1
    45    40    41    2
    46    40    39    1
    47    30    31    1
    48    30    33    1
    49    32    31    2
    50    31    38   am
    51    71    68    1
    52    38    39    1
    53    39    42    1
    54    43    44    1
    55    43    42    1
    56    34    35    1
    57    34    33    1
    58    35    36    1
    59    36    37    1
    60    45    44    1
    61    68    67    1
    62    68    69    1
    63    69    70    2
    64    97    96    1
    65    81    78    1
    66    96    95   ar
    67    96    94   ar
    68    57    56    2
    69    66    64    1
    70    54    55    1
    71    54    51    1
    72    95    93   ar
    73    94    92   ar
    74    55    56    1
    75    78    77    1
    76    78    79    1
    77    56    58   am
    78    77    74   am
    79    76    73    1
    80    52    51    1
    81    52    53    2
    82    64    65    1
    83    64    63    1
    84    51    50    1
    85    93    91   ar
    86    74    73    1
    87    74    75    2
    88    92    91   ar
    89    79    80    2
    90    72    73    1
    91    63    60    1
    92    91    90    1
    93    60    59    1
    94    60    61    1
    95    61    62    2
    96    90    87    1
    97    83    84    1
    98    83    82    1
    99    84    86   am
   100    84    85    2
   101    86    87    1
   102    87    88    1
   103    88    89    2
