@<TRIPOS>MOLECULE
tmp/1wtfA00.pdb
 64 60 0 0 0
SMALL
GASTEIGER

@<TRIPOS>ATOM
      1  N        -19.1370  -25.6070   13.7470 N.3    12  ILE12      -0.1231
      2  CA       -20.1410  -26.3460   14.5010 C.3    12  ILE12       0.1692
      3  C        -21.0890  -27.1120   13.5840 C.2    12  ILE12       0.2592
      4  O        -22.2840  -27.3090   13.8770 O.2    12  ILE12      -0.2718
      5  CB       -20.8430  -25.4330   15.4940 C.3    12  ILE12       0.0266
      6  CG1      -21.4800  -24.2600   14.8050 C.3    12  ILE12       0.0019
      7  CG2      -19.8170  -24.9920   16.5300 C.3    12  ILE12       0.0020
      8  CD1      -22.1080  -23.3480   15.8820 C.3    12  ILE12       0.0001
      9  N        -20.5290  -27.6230   12.4950 N.am   13  ALA13      -0.1966
     10  CA       -21.2610  -28.4830   11.5430 C.3    13  ALA13       0.1728
     11  C        -22.4990  -27.8520   10.9370 C.2    13  ALA13       0.2616
     12  O        -23.5800  -28.5110   10.7820 O.2    13  ALA13      -0.2715
     13  CB       -21.6450  -29.8340   12.2310 C.3    13  ALA13       0.0334
     14  N        -22.3660  -26.5980   10.5300 N.am   14  CYS14      -0.1954
     15  CA       -23.5040  -25.9250    9.9220 C.3    14  CYS14       0.1843
     16  C        -23.8540  -26.5560    8.5880 C.2    14  CYS14       0.2626
     17  O        -25.0150  -26.5450    8.1790 O.2    14  CYS14      -0.2714
     18  CB       -23.1960  -24.4510    9.7480 C.3    14  CYS14       0.0997
     19  SG       -22.9310  -23.6230   11.3410 S.3    14  CYS14      -0.0797
     20  N        -22.8520  -27.0540    7.8840 N.am   15  GLY15      -0.1940
     21  CA       -23.0920  -27.7690    6.6250 C.3    15  GLY15       0.2014
     22  C        -23.3590  -26.9420    5.3810 C.2    15  GLY15       0.2638
     23  O        -23.7920  -27.4840    4.3580 O.2    15  GLY15      -0.2714
     24  N        -23.1020  -25.6400    5.4200 N.am   16  ALA16      -0.1977
     25  CA       -23.3420  -24.8040    4.2540 C.3    16  ALA16       0.1597
     26  C        -22.2010  -24.9590    3.2490 C.2    16  ALA16       0.2287
     27  O        -22.3900  -24.8680    2.0210 O.2    16  ALA16      -0.2864
     28  CB       -23.4310  -23.3260    4.6730 C.3    16  ALA16       0.0319
     29  N        -22.1320  -28.1100    0.6780 N.3    19  ALA19      -0.1231
     30  CA       -23.1360  -28.0010   -0.3500 C.3    19  ALA19       0.1694
     31  C        -22.7350  -26.9470   -1.3950 C.2    19  ALA19       0.2591
     32  O        -22.9670  -27.1450   -2.5860 O.2    19  ALA19      -0.2718
     33  CB       -24.4740  -27.5910    0.3290 C.3    19  ALA19       0.0304
     34  N        -22.1370  -25.8320   -0.9400 N.am   20  ALA20      -0.1980
     35  CA       -21.7460  -24.7580   -1.8500 C.3    20  ALA20       0.1597
     36  C        -20.4980  -25.0970   -2.6390 C.2    20  ALA20       0.2287
     37  O        -20.3380  -24.5970   -3.7420 O.2    20  ALA20      -0.2864
     38  CB       -21.5180  -23.4480   -1.0350 C.3    20  ALA20       0.0319
     39  N        -18.6390  -18.7850   -2.3100 N.3    56  ASP56      -0.1239
     40  CA       -19.9960  -19.0760   -1.8190 C.3    56  ASP56       0.1674
     41  C        -19.9030  -19.7220   -0.4360 C.2    56  ASP56       0.2266
     42  O        -20.6850  -19.3830    0.4470 O.2    56  ASP56      -0.2867
     43  CB       -20.7260  -20.0190   -2.7590 C.3    56  ASP56       0.1410
     44  CG       -21.2450  -19.3340   -4.0070 C.2    56  ASP56       0.3668
     45  OD1      -21.5560  -20.0630   -4.9540 O.co2  56  ASP56      -0.2456
     46  OD2      -21.3600  -18.0870   -4.0280 O.co2  56  ASP56      -0.2456
     47  N        -21.1810  -18.1050    3.0160 N.3    60  GLY60      -0.1225
     48  CA       -22.2700  -18.7940    3.6570 C.3    60  GLY60       0.1811
     49  C        -22.0430  -19.3370    5.0540 C.2    60  GLY60       0.2280
     50  O        -22.9940  -19.5040    5.8150 O.2    60  GLY60      -0.2866
     51  N        -21.9660  -19.7600    8.6590 N.3    62  PRO62      -0.2102
     52  CA       -22.4640  -18.9100    9.7500 C.3    62  PRO62       0.1504
     53  C        -21.4660  -18.5790   10.8290 C.2    62  PRO62       0.2576
     54  O        -21.5950  -17.5500   11.5170 O.2    62  PRO62      -0.2718
     55  CB       -23.6400  -19.7140   10.3370 C.3    62  PRO62       0.0282
     56  CG       -24.0780  -20.6080    9.1810 C.3    62  PRO62       0.0208
     57  CD       -22.7570  -20.9930    8.4960 C.3    62  PRO62       0.0893
     58  N        -20.4510  -19.4090   11.0060 N.am   63  THR63      -0.1953
     59  CA       -19.4440  -19.2100   12.0550 C.3    63  THR63       0.1897
     60  C        -18.1370  -18.5890   11.5920 C.2    63  THR63       0.2313
     61  O        -17.2220  -18.3870   12.3960 O.2    63  THR63      -0.2863
     62  CB       -19.0810  -20.5380   12.7190 C.3    63  THR63       0.1794
     63  OG1      -18.4970  -21.4140   11.7370 O.3    63  THR63      -0.2208
     64  CG2      -20.3300  -21.2120   13.3250 C.3    63  THR63       0.0378
@<TRIPOS>BOND
     1    45    44   ar
     2    46    44   ar
     3    44    43    1
     4    37    36    2
     5    43    40    1
     6    36    35    1
     7    32    31    2
     8    39    40    1
     9    35    38    1
    10    35    34    1
    11    40    41    1
    12    31    34   am
    13    31    30    1
    14    41    42    2
    15    30    33    1
    16    30    29    1
    17    27    26    2
    18    47    48    1
    19    26    25    1
    20    48    49    1
    21    25    28    1
    22    25    24    1
    23    23    22    2
    24    49    50    2
    25    22    24   am
    26    22    21    1
    27    21    20    1
    28    20    16   am
    29    17    16    2
    30    57    51    1
    31    57    56    1
    32    16    15    1
    33    51    52    1
    34    56    55    1
    35    18    15    1
    36    18    19    1
    37    52    55    1
    38    52    53    1
    39    15    14    1
    40    14    11   am
    41    12    11    2
    42    53    58   am
    43    53    54    2
    44    11    10    1
    45    58    59    1
    46    10    13    1
    47    10     9    1
    48    60    59    1
    49    60    61    2
    50    63    62    1
    51    59    62    1
    52     9     3   am
    53    62    64    1
    54     3     4    2
    55     3     2    1
    56     1     2    1
    57     2     5    1
    58     6     5    1
    59     6     8    1
    60     5     7    1
