@<TRIPOS>MOLECULE
tmp/1wtgB00.pdb
 208 207 0 0 0
SMALL
GASTEIGER

@<TRIPOS>ATOM
      1  N         31.9810   14.4230    4.3510 N.3    41  HIS41      -0.1241
      2  CA        32.4280   13.1130    3.8830 C.3    41  HIS41       0.1621
      3  C         31.3660   12.2890    3.1520 C.2    41  HIS41       0.2264
      4  O         31.6930   11.3030    2.4900 O.2    41  HIS41      -0.2867
      5  CB        33.0280   12.2950    5.0370 C.3    41  HIS41       0.0745
      6  CG        32.0290   11.5020    5.8190 C.ar   41  HIS41       0.0817
      7  ND1       31.5620   11.9010    7.0540 N.ar   41  HIS41      -0.2268
      8  CD2       31.4390   10.3090    5.5610 C.ar   41  HIS41       0.1154
      9  CE1       30.7330   10.9870    7.5250 C.ar   41  HIS41       0.1986
     10  NE2       30.6410   10.0110    6.6380 N.ar   41  HIS41      -0.2212
     11  N         32.2880   12.2210   -0.5970 N.3    44  ASP44      -0.1225
     12  CA        33.6120   11.7900   -1.0490 C.3    44  ASP44       0.1805
     13  C         33.5890   11.0410   -2.3840 C.2    44  ASP44       0.2597
     14  O         34.4190   11.2950   -3.2580 O.2    44  ASP44      -0.2718
     15  CB        34.2730   10.8930    0.0030 C.3    44  ASP44       0.1424
     16  CG        34.8560   11.6790    1.1580 C.2    44  ASP44       0.3668
     17  OD1       34.6560   12.9120    1.2010 O.co2  44  ASP44      -0.2456
     18  OD2       35.5190   11.0600    2.0200 O.co2  44  ASP44      -0.2456
     19  N         32.6490   10.1160   -2.5480 N.am   45  LYS45      -0.1979
     20  CA        32.5910    9.3550   -3.7910 C.3    45  LYS45       0.1596
     21  C         31.3990    9.6260   -4.7020 C.2    45  LYS45       0.2287
     22  O         30.9380    8.7250   -5.3990 O.2    45  LYS45      -0.2864
     23  CB        32.6660    7.8530   -3.4990 C.3    45  LYS45       0.0298
     24  CG        34.0740    7.3600   -3.2110 C.3    45  LYS45       0.0038
     25  CD        34.3130    7.1520   -1.7340 C.3    45  LYS45       0.0206
     26  CE        33.5950    5.9100   -1.2290 C.3    45  LYS45       0.1093
     27  NZ        33.8940    5.6510    0.2110 N.3    45  LYS45      -0.1314
     28  N         38.3060   21.0530    3.9920 N.3    82  TYR82      -0.1241
     29  CA        37.9620   19.6410    4.1640 C.3    82  TYR82       0.1605
     30  C         38.7060   18.7810    3.1500 C.2    82  TYR82       0.2264
     31  O         38.7720   19.1180    1.9750 O.2    82  TYR82      -0.2867
     32  CB        36.4550   19.4030    3.9890 C.3    82  TYR82       0.0534
     33  CG        36.1070   17.9260    3.9280 C.ar   82  TYR82      -0.0201
     34  CD1       36.0670   17.1540    5.0830 C.ar   82  TYR82      -0.0009
     35  CD2       35.8960   17.2880    2.7080 C.ar   82  TYR82      -0.0009
     36  CE1       35.8330   15.7860    5.0270 C.ar   82  TYR82       0.0417
     37  CE2       35.6610   15.9200    2.6440 C.ar   82  TYR82       0.0417
     38  CZ        35.6350   15.1750    3.8090 C.ar   82  TYR82       0.1957
     39  OH        35.4510   13.8070    3.7570 O.3    82  TYR82      -0.2866
     40  N         38.2810   11.6630    2.5500 N.3    85  GLY85      -0.1210
     41  CA        38.9310   10.5550    3.2260 C.3    85  GLY85       0.1956
     42  C         39.2990   10.8400    4.6720 C.2    85  GLY85       0.2613
     43  O         39.6570    9.9260    5.4110 O.2    85  GLY85      -0.2717
     44  N         39.2010   12.0990    5.0890 N.am   86  THR86      -0.1938
     45  CA        39.5600   12.4590    6.4510 C.3    86  THR86       0.2028
     46  C         38.3650   12.8800    7.2970 C.2    86  THR86       0.2642
     47  O         37.2140   12.6900    6.8900 O.2    86  THR86      -0.2714
     48  CB        40.6390   13.5630    6.4660 C.3    86  THR86       0.1808
     49  OG1       40.0900   14.7940    5.9760 O.3    86  THR86      -0.2208
     50  CG2       41.8140   13.1470    5.5790 C.3    86  THR86       0.0379
     51  N         38.6450   13.4700    8.4590 N.am   87  THR87      -0.1950
     52  CA        37.6030   13.8470    9.4030 C.3    87  THR87       0.1897
     53  C         37.3870   15.3220    9.7970 C.2    87  THR87       0.2313
     54  O         36.2820   15.6900   10.2080 O.2    87  THR87      -0.2863
     55  CB        37.7960   13.0340   10.6930 C.3    87  THR87       0.1794
     56  OG1       39.1530   13.1710   11.1390 O.3    87  THR87      -0.2208
     57  CG2       37.5010   11.5540   10.4430 C.3    87  THR87       0.0378
     58  N         44.9580    4.6730   21.4710 N.3   165  VAL165     -0.1231
     59  CA        45.2630    3.8270   20.3250 C.3   165  VAL165      0.1692
     60  C         46.4670    4.3380   19.5440 C.2   165  VAL165      0.2593
     61  O         47.1730    5.2450   19.9900 O.2   165  VAL165     -0.2718
     62  CB        44.0550    3.7310   19.3680 C.3   165  VAL165      0.0266
     63  CG1       42.8970    3.0260   20.0560 C.3   165  VAL165      0.0020
     64  CG2       43.6350    5.1170   18.9300 C.3   165  VAL165      0.0020
     65  N         46.6980    3.7470   18.3770 N.am  166  GLY166     -0.1942
     66  CA        47.8170    4.1530   17.5520 C.3   166  GLY166      0.2014
     67  C         47.6330    5.5400   16.9700 C.2   166  GLY166      0.2639
     68  O         47.2290    6.4700   17.6710 O.2   166  GLY166     -0.2714
     69  N         47.9260    5.6760   15.6810 N.am  167  ASP167     -0.1957
     70  CA        47.8010    6.9550   14.9970 C.3   167  ASP167      0.1840
     71  C         46.4160    7.1820   14.4030 C.2   167  ASP167      0.2623
     72  O         46.2600    7.2920   13.1890 O.2   167  ASP167     -0.2715
     73  CB        48.8560    7.0630   13.8960 C.3   167  ASP167      0.1450
     74  CG        50.2600    7.1940   14.4500 C.2   167  ASP167      0.3671
     75  OD1       50.5170    8.1710   15.1880 O.co2 167  ASP167     -0.2456
     76  OD2       51.1050    6.3220   14.1500 O.co2 167  ASP167     -0.2456
     77  N         45.4120    7.2510   15.2690 N.am  168  SER168     -0.1936
     78  CA        44.0430    7.4840   14.8340 C.3   168  SER168      0.2040
     79  C         43.8220    8.9940   14.7010 C.2   168  SER168      0.2485
     80  O         44.6130    9.7910   15.2010 O.2   168  SER168     -0.2729
     81  CB        43.0650    6.8870   15.8510 C.3   168  SER168      0.2129
     82  OG        43.3000    7.3940   17.1540 O.3   168  SER168     -0.2179
     83  N         42.7430    9.4050   14.0220 N.am  169  PRO169     -0.2726
     84  CA        42.4510   10.8310   13.8420 C.3   169  PRO169      0.1402
     85  C         42.4340   11.6050   15.1600 C.2   169  PRO169      0.2269
     86  O         42.0020   11.0880   16.1880 O.2   169  PRO169     -0.2865
     87  CB        41.0820   10.8160   13.1640 C.3   169  PRO169      0.0296
     88  CG        41.1200    9.5450   12.3680 C.3   169  PRO169      0.0237
     89  CD        41.7270    8.5730   13.3540 C.3   169  PRO169      0.0939
     90  N         25.5790    4.4330   20.3790 N.3   186  ASP186     -0.1225
     91  CA        26.3630    5.3570   19.5690 C.3   186  ASP186      0.1805
     92  C         25.6700    5.4940   18.2130 C.2   186  ASP186      0.2598
     93  O         24.7750    4.7120   17.8950 O.2   186  ASP186     -0.2718
     94  CB        27.7700    4.7460   19.4220 C.3   186  ASP186      0.1424
     95  CG        28.7450    5.6230   18.6610 C.2   186  ASP186      0.3668
     96  OD1       28.4770    6.8280   18.4630 O.co2 186  ASP186     -0.2456
     97  OD2       29.8050    5.0860   18.2750 O.co2 186  ASP186     -0.2456
     98  N         26.0330    6.5060   17.4340 N.am  187  SER187     -0.1938
     99  CA        25.4640    6.6350   16.0980 C.3   187  SER187      0.2055
    100  C         26.3930    5.7670   15.2410 C.2   187  SER187      0.2643
    101  O         27.3430    5.1830   15.7700 O.2   187  SER187     -0.2714
    102  CB        25.4700    8.1020   15.6300 C.3   187  SER187      0.2130
    103  OG        26.7090    8.7500   15.8710 O.3   187  SER187     -0.2179
    104  N         26.1370    5.6590   13.9400 N.am  188  CYS188     -0.1953
    105  CA        26.9960    4.8330   13.0870 C.3   188  CYS188      0.1843
    106  C         27.1320    5.4410   11.6900 C.2   188  CYS188      0.2625
    107  O         26.5120    6.4600   11.3900 O.2   188  CYS188     -0.2714
    108  CB        26.4470    3.3970   13.0190 C.3   188  CYS188      0.0997
    109  SG        27.6330    2.0950   12.5110 S.3   188  CYS188     -0.0797
    110  N         27.9480    4.8150   10.8460 N.am  189  LYS189     -0.1977
    111  CA        28.2180    5.3060    9.4940 C.3   189  LYS189      0.1596
    112  C         27.0240    5.7980    8.6830 C.2   189  LYS189      0.2287
    113  O         27.0640    6.8940    8.1230 O.2   189  LYS189     -0.2864
    114  CB        28.9810    4.2410    8.6960 C.3   189  LYS189      0.0298
    115  CG        30.3200    3.8790    9.3260 C.3   189  LYS189      0.0038
    116  CD        31.1820    3.0150    8.4210 C.3   189  LYS189      0.0206
    117  CE        32.4910    2.6540    9.1240 C.3   189  LYS189      0.1093
    118  NZ        33.4210    1.8620    8.2650 N.3   189  LYS189     -0.1314
    119  N         25.6260    9.2960    9.3300 N.3   192  SER192     -0.1217
    120  CA        26.4490   10.4440    8.9640 C.3   192  SER192      0.1889
    121  C         25.6370   11.6010    8.3980 C.2   192  SER192      0.2288
    122  O         24.7370   11.4040    7.5790 O.2   192  SER192     -0.2866
    123  CB        27.5110   10.0320    7.9370 C.3   192  SER192      0.2089
    124  OG        28.4470    9.1250    8.4950 O.3   192  SER192     -0.2183
    125  N         26.6370   14.0050   12.9730 N.3   210  VAL210     -0.1231
    126  CA        27.2030   12.6550   13.0450 C.3   210  VAL210      0.1692
    127  C         28.3510   12.6830   12.0460 C.2   210  VAL210      0.2593
    128  O         28.1350   12.8710   10.8440 O.2   210  VAL210     -0.2718
    129  CB        26.1610   11.5810   12.6270 C.3   210  VAL210      0.0266
    130  CG1       26.8040   10.1960   12.6150 C.3   210  VAL210      0.0020
    131  CG2       24.9880   11.5860   13.6080 C.3   210  VAL210      0.0020
    132  N         29.5730   12.5060   12.5360 N.am  211  SER211     -0.1938
    133  CA        30.7380   12.5940   11.6640 C.3   211  SER211      0.2055
    134  C         31.6140   11.3520   11.5670 C.2   211  SER211      0.2643
    135  O         31.7350   10.7620   10.4940 O.2   211  SER211     -0.2714
    136  CB        31.5860   13.7930   12.0910 C.3   211  SER211      0.2130
    137  OG        32.7480   13.9110   11.2980 O.3   211  SER211     -0.2179
    138  N         32.2340   10.9600   12.6750 N.am  212  TRP212     -0.1959
    139  CA        33.0930    9.7850   12.6580 C.3   212  TRP212      0.1771
    140  C         33.2500    9.1110   14.0110 C.2   212  TRP212      0.2620
    141  O         32.6510    9.5200   15.0050 O.2   212  TRP212     -0.2715
    142  CB        34.4890   10.1420   12.1110 C.3   212  TRP212      0.0590
    143  CG        35.3000   11.0870   12.9760 C.ar  212  TRP212      0.0006
    144  CD1       35.1820   12.4480   13.0420 C.ar  212  TRP212      0.0946
    145  CD2       36.3720   10.7370   13.8670 C.ar  212  TRP212      0.0152
    146  NE1       36.1140   12.9670   13.9110 N.ar  212  TRP212     -0.2442
    147  CE2       36.8560   11.9380   14.4320 C.ar  212  TRP212      0.0810
    148  CE3       36.9700    9.5270   14.2400 C.ar  212  TRP212      0.0012
    149  CZ2       37.9060   11.9650   15.3520 C.ar  212  TRP212      0.0191
    150  CZ3       38.0170    9.5540   15.1570 C.ar  212  TRP212      0.0001
    151  CH2       38.4730   10.7670   15.7020 C.ar  212  TRP212      0.0015
    152  N         34.0740    8.0710   14.0320 N.am  213  GLY213     -0.1940
    153  CA        34.3250    7.3380   15.2560 C.3   213  GLY213      0.2014
    154  C         34.9800    6.0160   14.9260 C.2   213  GLY213      0.2639
    155  O         34.8470    5.5240   13.8020 O.2   213  GLY213     -0.2714
    156  N         35.6960    5.4380   15.8830 N.am  214  GLN214     -0.1963
    157  CA        36.3470    4.1560   15.6420 C.3   214  GLN214      0.1733
    158  C         35.2840    3.0740   15.7500 C.2   214  GLN214      0.2617
    159  O         34.8580    2.7160   16.8470 O.2   214  GLN214     -0.2715
    160  CB        37.4600    3.9220   16.6620 C.3   214  GLN214      0.0408
    161  CG        38.1700    2.5850   16.4880 C.3   214  GLN214      0.0908
    162  CD        39.5410    2.5670   17.1310 C.2   214  GLN214      0.2608
    163  OE1       40.1310    1.5010   17.3310 O.2   214  GLN214     -0.2717
    164  NE2       40.0660    3.7510   17.4460 N.am  214  GLN214     -0.0878
    165  N         34.8520    2.5580   14.6040 N.am  215  GLY215     -0.1940
    166  CA        33.8030    1.5560   14.6000 C.3   215  GLY215      0.2014
    167  C         32.5370    2.2090   15.1340 C.2   215  GLY215      0.2639
    168  O         32.4420    3.4370   15.1790 O.2   215  GLY215     -0.2714
    169  N         31.5650    1.4030   15.5410 N.am  216  CYS216     -0.1967
    170  CA        30.3160    1.9300   16.0830 C.3   216  CYS216      0.1712
    171  C         30.0390    1.2560   17.4210 C.2   216  CYS216      0.2296
    172  O         29.9180    0.0290   17.4960 O.2   216  CYS216     -0.2864
    173  CB        29.1620    1.6730   15.1080 C.3   216  CYS216      0.0983
    174  SG        29.3430    2.5440   13.5200 S.3   216  CYS216     -0.0798
    175  N         34.1670    6.7760   21.8780 N.3   222  PHE222     -0.1227
    176  CA        32.9680    7.6010   21.8290 C.3   222  PHE222      0.1736
    177  C         32.7300    8.0310   20.3880 C.2   222  PHE222      0.2596
    178  O         33.6550    8.0380   19.5730 O.2   222  PHE222     -0.2718
    179  CB        33.1610    8.8740   22.6640 C.3   222  PHE222      0.0547
    180  CG        33.3120    8.6340   24.1410 C.ar  222  PHE222     -0.0202
    181  CD1       32.2010    8.5860   24.9660 C.ar  222  PHE222     -0.0042
    182  CD2       34.5700    8.4860   24.7070 C.ar  222  PHE222     -0.0042
    183  CE1       32.3420    8.3970   26.3330 C.ar  222  PHE222     -0.0003
    184  CE2       34.7170    8.2960   26.0700 C.ar  222  PHE222     -0.0003
    185  CZ        33.6000    8.2530   26.8850 C.ar  222  PHE222     -0.0000
    186  N         31.4940    8.4010   20.0780 N.am  223  GLY223     -0.1942
    187  CA        31.2030    8.8870   18.7460 C.3   223  GLY223      0.2014
    188  C         31.7480   10.3100   18.6840 C.2   223  GLY223      0.2639
    189  O         31.8270   10.9840   19.7140 O.2   223  GLY223     -0.2714
    190  N         32.1420   10.7610   17.4960 N.am  224  VAL224     -0.1963
    191  CA        32.6740   12.1100   17.3260 C.3   224  VAL224      0.1727
    192  C         31.7810   12.8740   16.3540 C.2   224  VAL224      0.2616
    193  O         31.4020   12.3600   15.2990 O.2   224  VAL224     -0.2715
    194  CB        34.1170   12.0910   16.7830 C.3   224  VAL224      0.0290
    195  CG1       34.7030   13.5050   16.8280 C.3   224  VAL224      0.0023
    196  CG2       34.9650   11.1250   17.5950 C.3   224  VAL224      0.0023
    197  N         31.4630   14.1110   16.7170 N.am  225  TYR225     -0.1974
    198  CA        30.5670   14.9400   15.9270 C.3   225  TYR225      0.1639
    199  C         31.1890   16.2770   15.5340 C.2   225  TYR225      0.2290
    200  O         31.9960   16.8380   16.2690 O.2   225  TYR225     -0.2864
    201  CB        29.2790   15.1900   16.7300 C.3   225  TYR225      0.0560
    202  CG        28.5620   13.9210   17.1730 C.ar  225  TYR225     -0.0198
    203  CD1       29.0290   13.1540   18.2400 C.ar  225  TYR225     -0.0009
    204  CD2       27.4520   13.4620   16.4800 C.ar  225  TYR225     -0.0009
    205  CE1       28.4010   11.9550   18.5900 C.ar  225  TYR225      0.0417
    206  CE2       26.8300   12.2870   16.8170 C.ar  225  TYR225      0.0417
    207  CZ        27.3020   11.5320   17.8650 C.ar  225  TYR225      0.1957
    208  OH        26.6700   10.3410   18.1520 O.3   225  TYR225     -0.2866
@<TRIPOS>BOND
     1    22    21    2
     2    21    20    1
     3    20    23    1
     4    20    19    1
     5    23    24    1
     6    14    13    2
     7    24    25    1
     8    19    13   am
     9    13    12    1
    10    25    26    1
    11    26    27    1
    12    12    11    1
    13    12    15    1
    14    15    16    1
    15    16    17   ar
    16    16    18   ar
    17    31    30    2
    18     4     3    2
    19    40    41    1
    20    37    35   ar
    21    37    38   ar
    22    35    33   ar
    23    30    29    1
    24     3     2    1
    25    41    42    1
    26    39    38    1
    27    38    36   ar
    28     2     1    1
    29     2     5    1
    30    33    32    1
    31    33    34   ar
    32    32    29    1
    33    28    29    1
    34    42    44   am
    35    42    43    2
    36    36    34   ar
    37     5     6    1
    38    44    45    1
    39     8     6   ar
    40     8    10   ar
    41    50    48    1
    42     6     7   ar
    43    49    48    1
    44    45    48    1
    45    45    46    1
    46    10     9   ar
    47    47    46    2
    48     7     9   ar
    49    46    51   am
    50   122   121    2
    51   123   124    1
    52   123   120    1
    53   113   112    2
    54   118   117    1
    55   121   120    1
    56   116   117    1
    57   116   115    1
    58    51    52    1
    59   112   111    1
    60   114   115    1
    61   114   111    1
    62   120   119    1
    63    52    53    1
    64    52    55    1
    65   111   110    1
    66    53    54    2
    67    57    55    1
    68   135   134    2
    69    55    56    1
    70   128   127    2
    71   110   106   am
    72   137   136    1
    73   107   106    2
    74   134   133    1
    75   134   138   am
    76   133   136    1
    77   133   132    1
    78   106   105    1
    79   127   132   am
    80   127   126    1
    81   142   139    1
    82   142   143    1
    83    88    87    1
    84    88    89    1
    85   109   108    1
    86   109   174    1
    87   130   129    1
    88   129   126    1
    89   129   131    1
    90   139   138    1
    91   139   140    1
    92   125   126    1
    93   143   144   ar
    94   143   145   ar
    95   108   105    1
    96   144   146   ar
    97   105   104    1
    98    87    84    1
    99    72    71    2
   100    89    83    1
   101   174   173    1
   102   155   154    2
   103    84    83    1
   104    84    85    1
   105   145   148   ar
   106   145   147   ar
   107    73    74    1
   108    73    70    1
   109   146   147   ar
   110   104   100   am
   111   140   152   am
   112   140   141    2
   113    83    79   am
   114   152   153    1
   115    76    74   ar
   116   148   150   ar
   117    71    70    1
   118    71    77   am
   119   147   149   ar
   120    74    75   ar
   121   166   165    1
   122   166   167    1
   123   165   158   am
   124    79    78    1
   125    79    80    2
   126    78    77    1
   127    78    81    1
   128   154   153    1
   129   154   156   am
   130    70    69    1
   131   173   170    1
   132   167   168    2
   133   167   169   am
   134   150   151   ar
   135    85    86    2
   136   100   101    2
   137   100    99    1
   138   193   192    2
   139   149   151   ar
   140   199   198    1
   141   199   200    2
   142   169   170    1
   143   102   103    1
   144   102    99    1
   145   157   158    1
   146   157   156    1
   147   157   160    1
   148    69    67   am
   149   158   159    2
   150    81    82    1
   151   198   197    1
   152   198   201    1
   153   170   171    1
   154    99    98    1
   155   192   197   am
   156   192   191    1
   157   204   206   ar
   158   204   202   ar
   159   161   160    1
   160   161   162    1
   161   201   202    1
   162   194   195    1
   163   194   191    1
   164   194   196    1
   165   206   207   ar
   166    67    66    1
   167    67    68    2
   168   162   163    2
   169   162   164   am
   170   202   203   ar
   171   191   190    1
   172   171   172    2
   173    98    92   am
   174   190   188   am
   175    66    65    1
   176   207   208    1
   177   207   205   ar
   178    93    92    2
   179    92    91    1
   180   203   205   ar
   181    97    95   ar
   182    65    60   am
   183    96    95   ar
   184    95    94    1
   185   188   187    1
   186   188   189    2
   187   187   186    1
   188    64    62    1
   189    62    63    1
   190    62    59    1
   191    94    91    1
   192    60    61    2
   193    60    59    1
   194    91    90    1
   195   178   177    2
   196   186   177   am
   197    59    58    1
   198   177   176    1
   199   176   175    1
   200   176   179    1
   201   179   180    1
   202   180   182   ar
   203   180   181   ar
   204   182   184   ar
   205   181   183   ar
   206   184   185   ar
   207   183   185   ar
