@<TRIPOS>MOLECULE
tmp/1wu1A00.pdb
 198 196 0 0 0
SMALL
GASTEIGER

@<TRIPOS>ATOM
      1  N         13.9520   10.8720   14.0420 N.3    42  HIS42      -0.1241
      2  CA        12.5120   10.9850   14.2490 C.3    42  HIS42       0.1621
      3  C         12.0110   12.3770   14.6610 C.2    42  HIS42       0.2264
      4  O         10.8190   12.6570   14.4840 O.2    42  HIS42      -0.2867
      5  CB        11.9630    9.8580   15.1660 C.3    42  HIS42       0.0745
      6  CG        11.6480   10.2830   16.5470 C.ar   42  HIS42       0.0817
      7  ND1       12.4510    9.9740   17.6270 N.ar   42  HIS42      -0.2268
      8  CD2       10.6110   11.0000   17.0440 C.ar   42  HIS42       0.1154
      9  CE1       11.9040   10.4580   18.7320 C.ar   42  HIS42       0.1986
     10  NE2       10.7940   11.1080   18.4030 N.ar   42  HIS42      -0.2212
     11  N         11.6060    5.1600   10.2410 N.3    82  LYS82      -0.1231
     12  CA        10.4780    5.5440   11.0500 C.3    82  LYS82       0.1693
     13  C          9.8840    4.3320   11.7050 C.2    82  LYS82       0.2592
     14  O          9.3090    4.4380   12.7820 O.2    82  LYS82      -0.2718
     15  CB         9.4240    6.2670   10.2060 C.3    82  LYS82       0.0285
     16  CG         8.2880    6.8340   11.0400 C.3    82  LYS82       0.0035
     17  CD         8.7680    8.1730   11.6440 C.3    82  LYS82       0.0206
     18  CE         7.5440    8.8900   12.1960 C.3    82  LYS82       0.1093
     19  NZ         8.0140    9.9880   13.0700 N.3    82  LYS82      -0.1314
     20  N         10.0530    3.1760   11.0670 N.am   83  GLU83      -0.1966
     21  CA         9.2670    2.0000   11.4010 C.3    83  GLU83       0.1733
     22  C          9.9360    1.1030   12.4380 C.2    83  GLU83       0.2617
     23  O          9.2730    0.3060   13.1100 O.2    83  GLU83      -0.2715
     24  CB         8.9570    1.2110   10.1250 C.3    83  GLU83       0.0429
     25  CG         8.3260    2.1260    9.0820 C.3    83  GLU83       0.1163
     26  CD         6.8770    2.4540    9.3260 C.2    83  GLU83       0.3649
     27  OE1        6.3350    1.9560   10.3150 O.co2  83  GLU83      -0.2457
     28  OE2        6.2710    3.2210    8.5160 O.co2  83  GLU83      -0.2457
     29  N         11.2490    1.2040   12.5690 N.am   84  THR84      -0.1937
     30  CA        11.9260    0.3830   13.5300 C.3    84  THR84       0.2028
     31  C         12.5540    1.2690   14.5600 C.2    84  THR84       0.2642
     32  O         13.0500    0.7840   15.5880 O.2    84  THR84      -0.2714
     33  CB        13.0370   -0.3290   12.8750 C.3    84  THR84       0.1808
     34  OG1       13.6540    0.5840   11.9580 O.3    84  THR84      -0.2208
     35  CG2       12.5230   -1.5610   12.1280 C.3    84  THR84       0.0379
     36  N         12.5280    2.5690   14.2580 N.am   85  TYR85      -0.1973
     37  CA        13.3110    3.5770   14.9430 C.3    85  TYR85       0.1639
     38  C         14.8110    3.3300   14.9500 C.2    85  TYR85       0.2290
     39  O         15.4650    3.8580   15.8130 O.2    85  TYR85      -0.2864
     40  CB        12.8730    3.6710   16.3750 C.3    85  TYR85       0.0560
     41  CG        11.6790    4.5030   16.6110 C.ar   85  TYR85      -0.0198
     42  CD1       11.8120    5.7790   17.1340 C.ar   85  TYR85      -0.0009
     43  CD2       10.4060    4.0130   16.3350 C.ar   85  TYR85      -0.0009
     44  CE1       10.7070    6.5730   17.3880 C.ar   85  TYR85       0.0417
     45  CE2        9.2780    4.7760   16.5940 C.ar   85  TYR85       0.0417
     46  CZ         9.4280    6.0650   17.1280 C.ar   85  TYR85       0.1957
     47  OH         8.3070    6.8550   17.3810 O.3    85  TYR85      -0.2866
     48  N          2.6340   10.5440   31.1950 N.3   135  GLU135     -0.1245
     49  CA         2.2320   10.0420   29.8900 C.3   135  GLU135      0.1567
     50  C          1.1180   10.8960   29.2830 C.2   135  GLU135      0.2260
     51  O          1.2090   11.3660   28.1300 O.2   135  GLU135     -0.2867
     52  CB         1.8260    8.5590   29.9690 C.3   135  GLU135      0.0388
     53  CG         1.8700    7.8480   28.6120 C.3   135  GLU135      0.1160
     54  CD         1.5340    6.3710   28.7110 C.2   135  GLU135      0.3649
     55  OE1        2.0120    5.7170   29.6750 O.co2 135  GLU135     -0.2457
     56  OE2        0.8060    5.8680   27.8180 O.co2 135  GLU135     -0.2457
     57  N          9.1440   -4.3780   21.1180 N.3   162  PHE162     -0.1227
     58  CA         9.7730   -4.1400   19.7960 C.3   162  PHE162      0.1736
     59  C         11.2440   -4.5300   19.7810 C.2   162  PHE162      0.2595
     60  O         11.8470   -4.7550   20.8110 O.2   162  PHE162     -0.2718
     61  CB         9.6230   -2.6900   19.4000 C.3   162  PHE162      0.0547
     62  CG         8.2090   -2.2280   19.3240 C.ar  162  PHE162     -0.0202
     63  CD1        7.4990   -2.3220   18.1310 C.ar  162  PHE162     -0.0042
     64  CD2        7.5740   -1.6870   20.4500 C.ar  162  PHE162     -0.0042
     65  CE1        6.1530   -1.8550   18.0590 C.ar  162  PHE162     -0.0003
     66  CE2        6.2490   -1.2280   20.3920 C.ar  162  PHE162     -0.0003
     67  CZ         5.5350   -1.3140   19.1940 C.ar  162  PHE162     -0.0000
     68  N         11.8460   -4.6270   18.6210 N.am  163  ILE163     -0.1980
     69  CA        13.2260   -5.0650   18.6300 C.3   163  ILE163      0.1595
     70  C         14.1950   -4.0020   19.1670 C.2   163  ILE163      0.2287
     71  O         14.0850   -2.8160   18.8330 O.2   163  ILE163     -0.2864
     72  CB        13.6450   -5.6290   17.2950 C.3   163  ILE163      0.0276
     73  CG1       12.9260   -6.9780   17.0730 C.3   163  ILE163      0.0022
     74  CG2       15.1640   -5.8530   17.2790 C.3   163  ILE163      0.0022
     75  CD1       12.6770   -7.3320   15.5910 C.3   163  ILE163      0.0001
     76  N         11.1040    8.6260   34.0980 N.3   179  ASP179     -0.1225
     77  CA        11.4380    8.3180   32.7410 C.3   179  ASP179      0.1805
     78  C         11.4240    9.6200   31.9730 C.2   179  ASP179      0.2598
     79  O         10.8760   10.5950   32.4270 O.2   179  ASP179     -0.2718
     80  CB        10.3910    7.3350   32.1900 C.3   179  ASP179      0.1424
     81  CG        10.8760    6.5840   30.9900 C.2   179  ASP179      0.3668
     82  OD1       12.0500    6.7270   30.6170 O.co2 179  ASP179     -0.2456
     83  OD2       10.0950    5.8430   30.3730 O.co2 179  ASP179     -0.2456
     84  N         12.0540    9.6140   30.8130 N.am  180  ALA180     -0.1966
     85  CA        11.8600   10.6000   29.7710 C.3   180  ALA180      0.1728
     86  C         10.4460   10.3720   29.3460 C.2   180  ALA180      0.2616
     87  O          9.8220    9.4360   29.8250 O.2   180  ALA180     -0.2715
     88  CB        12.7740   10.2940   28.5830 C.3   180  ALA180      0.0334
     89  N          9.9900   11.2140   28.4150 N.am  181  CYS181     -0.1954
     90  CA         8.6690   11.1750   27.8650 C.3   181  CYS181      0.1843
     91  C          8.5400   12.0990   26.6010 C.2   181  CYS181      0.2625
     92  O          9.4590   12.8640   26.2570 O.2   181  CYS181     -0.2714
     93  CB         7.6650   11.6250   28.9030 C.3   181  CYS181      0.0997
     94  SG         5.9690   11.2120   28.4280 S.3   181  CYS181     -0.0797
     95  N          7.3820   12.0240   25.9310 N.am  182  GLN182     -0.1963
     96  CA         7.1720   12.7960   24.7110 C.3   182  GLN182      0.1733
     97  C          7.7120   14.2110   24.9050 C.2   182  GLN182      0.2616
     98  O          7.4280   14.9060   25.9240 O.2   182  GLN182     -0.2715
     99  CB         5.6900   12.8140   24.3640 C.3   182  GLN182      0.0408
    100  CG         5.2730   13.6760   23.1660 C.3   182  GLN182      0.0908
    101  CD         4.0510   13.0850   22.4800 C.2   182  GLN182      0.2608
    102  OE1        3.9490   11.8430   22.3460 O.2   182  GLN182     -0.2717
    103  NE2        3.1100   13.9410   22.0550 N.am  182  GLN182     -0.0878
    104  N          8.4970   14.6490   23.9440 N.am  183  GLY183     -0.1955
    105  CA         9.0240   15.9790   24.0420 C.3   183  GLY183      0.1869
    106  C         10.4800   15.9760   24.4390 C.2   183  GLY183      0.2309
    107  O         11.2080   16.9030   24.0790 O.2   183  GLY183     -0.2863
    108  N         12.4750   13.6950   23.4540 N.3   185  SER185     -0.1217
    109  CA        13.1990   13.0410   22.3400 C.3   185  SER185      0.1889
    110  C         14.2440   13.8710   21.6460 C.2   185  SER185      0.2288
    111  O         14.0000   15.0300   21.3870 O.2   185  SER185     -0.2866
    112  CB        12.2120   12.6260   21.2290 C.3   185  SER185      0.2089
    113  OG        11.4500   11.5020   21.6470 O.3   185  SER185     -0.2183
    114  N         17.7440   10.6170   23.6000 N.3   203  VAL203     -0.1231
    115  CA        16.4050   10.1720   23.9490 C.3   203  VAL203      0.1692
    116  C         15.6830    9.8220   22.6150 C.2   203  VAL203      0.2593
    117  O         15.4650   10.6940   21.7720 O.2   203  VAL203     -0.2718
    118  CB        15.5950   11.2520   24.6580 C.3   203  VAL203      0.0266
    119  CG1       14.2040   10.6780   25.1060 C.3   203  VAL203      0.0020
    120  CG2       16.3380   11.8080   25.8640 C.3   203  VAL203      0.0020
    121  N         15.3650    8.5440   22.4240 N.am  204  SER204     -0.1938
    122  CA        14.7600    8.0700   21.1790 C.3   204  SER204      0.2055
    123  C         13.3070    7.6600   21.4330 C.2   204  SER204      0.2643
    124  O         12.4100    8.3630   21.0210 O.2   204  SER204     -0.2714
    125  CB        15.5850    6.8820   20.7040 C.3   204  SER204      0.2130
    126  OG        15.4110    6.5390   19.3320 O.3   204  SER204     -0.2179
    127  N         13.0620    6.5520   22.1460 N.am  205  TRP205     -0.1959
    128  CA        11.6900    6.1310   22.3750 C.3   205  TRP205      0.1771
    129  C         11.4780    5.3340   23.6580 C.2   205  TRP205      0.2620
    130  O         12.4180    5.0320   24.4050 O.2   205  TRP205     -0.2715
    131  CB        11.1290    5.3670   21.1420 C.3   205  TRP205      0.0590
    132  CG        11.8380    4.1030   20.8560 C.ar  205  TRP205      0.0006
    133  CD1       13.0300    3.9540   20.1660 C.ar  205  TRP205      0.0946
    134  CD2       11.4270    2.7700   21.2380 C.ar  205  TRP205      0.0152
    135  NE1       13.3760    2.6220   20.1130 N.ar  205  TRP205     -0.2442
    136  CE2       12.4070    1.8770   20.7470 C.ar  205  TRP205      0.0810
    137  CE3       10.3260    2.2520   21.9500 C.ar  205  TRP205      0.0012
    138  CZ2       12.3290    0.4910   20.9570 C.ar  205  TRP205      0.0191
    139  CZ3       10.2390    0.8700   22.1670 C.ar  205  TRP205      0.0001
    140  CH2       11.2380    0.0070   21.6640 C.ar  205  TRP205      0.0015
    141  N         10.2090    5.0440   23.9250 N.am  206  GLY206     -0.1940
    142  CA         9.7990    4.1600   25.0080 C.3   206  GLY206      0.2014
    143  C          8.3430    3.8190   24.7610 C.2   206  GLY206      0.2639
    144  O          7.6560    4.5600   24.0570 O.2   206  GLY206     -0.2714
    145  N          7.8790    2.7040   25.3340 N.am  207  GLU207     -0.1963
    146  CA         6.4640    2.2690   25.2820 C.3   207  GLU207      0.1733
    147  C          5.6450    2.9430   26.4020 C.2   207  GLU207      0.2617
    148  O          5.5930    2.4300   27.5180 O.2   207  GLU207     -0.2715
    149  CB         6.4070    0.7570   25.4400 C.3   207  GLU207      0.0429
    150  CG         7.0730   -0.0110   24.2820 C.3   207  GLU207      0.1163
    151  CD         6.9330   -1.5440   24.4110 C.2   207  GLU207      0.3649
    152  OE1        7.9360   -2.2820   24.7110 O.co2 207  GLU207     -0.2457
    153  OE2        5.7760   -1.9940   24.2230 O.co2 207  GLU207     -0.2457
    154  N          5.0200    4.0820   26.0950 N.am  208  GLY208     -0.1940
    155  CA         4.4550    4.9500   27.1100 C.3   208  GLY208      0.2014
    156  C          5.5030    5.8500   27.7550 C.2   208  GLY208      0.2639
    157  O          6.5320    6.2110   27.1140 O.2   208  GLY208     -0.2714
    158  N          5.2630    6.2430   29.0180 N.am  209  CYS209     -0.1967
    159  CA         6.2560    6.9780   29.7470 C.3   209  CYS209      0.1712
    160  C          6.1880    6.4550   31.1710 C.2   209  CYS209      0.2296
    161  O          5.1640    6.5650   31.8240 O.2   209  CYS209     -0.2864
    162  CB         6.0070    8.4990   29.7080 C.3   209  CYS209      0.0983
    163  SG         5.9850    9.2310   28.0780 S.3   209  CYS209     -0.0798
    164  N          6.0440    3.4910   32.3860 N.3   211  ARG211     -0.1245
    165  CA         5.3080    2.2460   32.6100 C.3   211  ARG211      0.1563
    166  C          6.1110    1.2190   33.3990 C.2   211  ARG211      0.2260
    167  O          7.3400    1.1510   33.2730 O.2   211  ARG211     -0.2867
    168  CB         4.8980    1.6470   31.2920 C.3   211  ARG211      0.0307
    169  CG         3.6540    2.3140   30.7680 C.3   211  ARG211      0.0489
    170  CD         3.4340    2.1310   29.2900 C.3   211  ARG211      0.2205
    171  NE         2.2900    2.9290   28.8400 N.pl3 211  ARG211     -0.0865
    172  CZ         1.6500    2.7470   27.6850 C.cat 211  ARG211      0.5346
    173  NH1        0.6270    3.5310   27.3420 N.pl3 211  ARG211      0.1354
    174  NH2        2.0380    1.7760   26.8710 N.pl3 211  ARG211      0.1354
    175  N         13.3260    3.2750   29.1080 N.3   216  GLY216     -0.1210
    176  CA        13.5610    4.2320   28.0340 C.3   216  GLY216      0.1956
    177  C         14.5960    3.6230   27.1230 C.2   216  GLY216      0.2612
    178  O         15.5760    3.0320   27.6040 O.2   216  GLY216     -0.2717
    179  N         14.3710    3.7880   25.8130 N.am  217  ILE217     -0.1965
    180  CA        15.2940    3.3920   24.7770 C.3   217  ILE217      0.1727
    181  C         16.0500    4.6380   24.1620 C.2   217  ILE217      0.2616
    182  O         15.4180    5.6070   23.6910 O.2   217  ILE217     -0.2715
    183  CB        14.4480    2.6800   23.7320 C.3   217  ILE217      0.0290
    184  CG1       13.4600    1.6980   24.4750 C.3   217  ILE217      0.0022
    185  CG2       15.2730    2.0220   22.6730 C.3   217  ILE217      0.0023
    186  CD1       14.1810    0.4470   25.1040 C.3   217  ILE217      0.0001
    187  N         17.3910    4.5720   24.1710 N.am  218  TYR218     -0.1974
    188  CA        18.3140    5.6310   23.7280 C.3   218  TYR218      0.1639
    189  C         19.1310    5.1980   22.4970 C.2   218  TYR218      0.2290
    190  O         19.4520    4.0200   22.3230 O.2   218  TYR218     -0.2864
    191  CB        19.2610    6.0150   24.8750 C.3   218  TYR218      0.0560
    192  CG        18.4450    6.5040   26.0610 C.ar  218  TYR218     -0.0198
    193  CD1       18.3220    7.8370   26.2950 C.ar  218  TYR218     -0.0009
    194  CD2       17.7480    5.6030   26.9110 C.ar  218  TYR218     -0.0009
    195  CE1       17.5540    8.2890   27.2900 C.ar  218  TYR218      0.0417
    196  CE2       16.9720    6.0750   27.9460 C.ar  218  TYR218      0.0417
    197  CZ        16.8720    7.4310   28.1150 C.ar  218  TYR218      0.1957
    198  OH        16.0970    7.9950   29.0810 O.3   218  TYR218     -0.2866
@<TRIPOS>BOND
     1    28    26   ar
     2    25    26    1
     3    25    24    1
     4    26    27   ar
     5    24    21    1
     6    15    16    1
     7    15    12    1
     8    11    12    1
     9    16    17    1
    10    12    13    1
    11    20    21    1
    12    20    13   am
    13    21    22    1
    14    17    18    1
    15    13    14    2
    16    34    33    1
    17    35    33    1
    18    18    19    1
    19    22    29   am
    20    22    23    2
    21    29    30    1
    22    33    30    1
    23    30    31    1
    24     1     2    1
    25     2     3    1
    26     2     5    1
    27    36    31   am
    28    36    37    1
    29     4     3    2
    30    31    32    2
    31    37    38    1
    32    37    40    1
    33    38    39    2
    34     5     6    1
    35    75    73    1
    36    43    45   ar
    37    43    41   ar
    38    40    41    1
    39     6     8   ar
    40     6     7   ar
    41    45    46   ar
    42    41    42   ar
    43     8    10   ar
    44    73    72    1
    45    46    47    1
    46    46    44   ar
    47    42    44   ar
    48    74    72    1
    49    72    69    1
    50     7     9   ar
    51    65    63   ar
    52    65    67   ar
    53    63    62   ar
    54    10     9   ar
    55    68    69    1
    56    68    59   am
    57    69    70    1
    58    71    70    2
    59    67    66   ar
    60    62    61    1
    61    62    64   ar
    62   126   125    1
    63    61    58    1
    64    59    58    1
    65    59    60    2
    66    58    57    1
    67   135   133   ar
    68   135   136   ar
    69   133   132   ar
    70    66    64   ar
    71   125   122    1
    72   136   138   ar
    73   136   134   ar
    74   132   131    1
    75   132   134   ar
    76   138   140   ar
    77   124   123    2
    78   131   128    1
    79   122   123    1
    80   122   121    1
    81   112   113    1
    82   112   109    1
    83   134   137   ar
    84   111   110    2
    85   123   127   am
    86   110   109    1
    87   140   139   ar
    88   117   116    2
    89   137   139   ar
    90   103   101   am
    91   127   128    1
    92   190   189    2
    93   109   108    1
    94   102   101    2
    95   128   129    1
    96   121   116   am
    97   101   100    1
    98   189   188    1
    99   116   115    1
   100   185   183    1
   101   100    99    1
   102   114   115    1
   103   129   141   am
   104   129   130    2
   105   182   181    2
   106   188   187    1
   107   188   191    1
   108   183   184    1
   109   183   180    1
   110   141   142    1
   111   104   105    1
   112   104    97   am
   113   115   118    1
   114   105   106    1
   115   144   143    2
   116   107   106    2
   117   181   187   am
   118   181   180    1
   119   153   151   ar
   120   150   151    1
   121   150   149    1
   122    99    96    1
   123   151   152   ar
   124   184   186    1
   125   118   119    1
   126   118   120    1
   127    96    97    1
   128    96    95    1
   129   143   142    1
   130   143   145   am
   131   180   179    1
   132   191   192    1
   133    97    98    2
   134   146   145    1
   135   146   149    1
   136   146   147    1
   137   179   177   am
   138    95    91   am
   139   192   193   ar
   140   192   194   ar
   141   154   147   am
   142   154   155    1
   143    92    91    2
   144   193   195   ar
   145   147   148    2
   146    91    90    1
   147   174   172    1
   148   194   196   ar
   149   155   156    1
   150   157   156    2
   151   177   178    2
   152   177   176    1
   153   195   197   ar
   154   173   172    1
   155   172   171    2
   156   156   158   am
   157    56    54   ar
   158    90    89    1
   159    90    93    1
   160   196   197   ar
   161   176   175    1
   162   163    94    1
   163   163   162    1
   164   197   198    1
   165    51    50    2
   166    89    86   am
   167    94    93    1
   168    88    85    1
   169    53    54    1
   170    53    52    1
   171    54    55   ar
   172   171   170    1
   173   158   159    1
   174    50    49    1
   175   170   169    1
   176    86    85    1
   177    86    87    2
   178   162   159    1
   179   159   160    1
   180    85    84    1
   181    49    52    1
   182    49    48    1
   183    83    81   ar
   184    82    81   ar
   185   169   168    1
   186    84    78   am
   187    81    80    1
   188   160   161    2
   189   168   165    1
   190    78    79    2
   191    78    77    1
   192    80    77    1
   193   164   165    1
   194   165   166    1
   195    77    76    1
   196   167   166    2
