@<TRIPOS>MOLECULE
tmp/1wu5A00.pdb
 114 108 0 0 0
SMALL
GASTEIGER

@<TRIPOS>ATOM
      1  N         53.7990   50.8650   17.6360 N.3    56  ASP56      -0.1239
      2  CA        52.8440   50.0560   16.8980 C.3    56  ASP56       0.1674
      3  C         53.6880   48.8130   16.6650 C.2    56  ASP56       0.2266
      4  O         54.4800   48.7530   15.7240 O.2    56  ASP56      -0.2867
      5  CB        52.4830   50.6890   15.5510 C.3    56  ASP56       0.1410
      6  CG        51.4720   49.8550   14.7650 C.2    56  ASP56       0.3668
      7  OD1       51.5710   48.6070   14.7880 O.co2  56  ASP56      -0.2456
      8  OD2       50.5840   50.4430   14.1120 O.co2  56  ASP56      -0.2456
      9  N         53.6980   47.2790   13.0100 N.3    59  ASN59      -0.1240
     10  CA        54.2860   47.9770   11.8740 C.3    59  ASN59       0.1653
     11  C         55.6260   48.6160   12.2220 C.2    59  ASN59       0.2266
     12  O         56.1870   49.3690   11.4270 O.2    59  ASN59      -0.2867
     13  CB        53.3150   49.0440   11.3660 C.3    59  ASN59       0.1155
     14  CG        52.0420   48.4470   10.7970 C.2    59  ASN59       0.2627
     15  OD1       52.0630   47.7950    9.7540 O.2    59  ASN59      -0.2716
     16  ND2       50.9280   48.6620   11.4830 N.am   59  ASN59      -0.0877
     17  N         53.0260   56.0490   15.7980 N.3    63  ARG63      -0.1245
     18  CA        51.9250   56.7500   15.1560 C.3    63  ARG63       0.1563
     19  C         51.2630   57.7550   16.0730 C.2    63  ARG63       0.2260
     20  O         51.1340   57.5220   17.2800 O.2    63  ARG63      -0.2867
     21  CB        50.8960   55.7240   14.6800 C.3    63  ARG63       0.0307
     22  CG        51.5440   54.6110   13.8880 C.3    63  ARG63       0.0489
     23  CD        50.5620   53.5790   13.3660 C.3    63  ARG63       0.2205
     24  NE        51.2090   52.8180   12.3040 N.pl3  63  ARG63      -0.0865
     25  CZ        50.5680   52.1300   11.3660 C.cat  63  ARG63       0.5346
     26  NH1       49.2390   52.0880   11.3520 N.pl3  63  ARG63       0.1354
     27  NH2       51.2630   51.5160   10.4180 N.pl3  63  ARG63       0.1354
     28  N         48.4060   58.2500   16.3370 N.3    65  GLU65      -0.1245
     29  CA        47.2580   57.5630   16.9130 C.3    65  GLU65       0.1567
     30  C         47.6860   57.0390   18.2860 C.2    65  GLU65       0.2260
     31  O         47.0140   57.2740   19.2970 O.2    65  GLU65      -0.2867
     32  CB        46.8480   56.3880   16.0280 C.3    65  GLU65       0.0388
     33  CG        45.8100   55.4620   16.6450 C.3    65  GLU65       0.1160
     34  CD        45.7130   54.1360   15.9060 C.2    65  GLU65       0.3649
     35  OE1       46.7380   53.4180   15.8350 O.co2  65  GLU65      -0.2457
     36  OE2       44.6160   53.8160   15.3970 O.co2  65  GLU65      -0.2457
     37  N         39.5060   46.6040   11.5340 N.3   257  SER257     -0.1202
     38  CA        40.2480   47.3770   12.5400 C.3   257  SER257      0.2020
     39  C         39.7360   48.7750   12.9210 C.2   257  SER257      0.2618
     40  O         39.4200   49.0240   14.0890 O.2   257  SER257     -0.2717
     41  CB        41.7160   47.4770   12.1240 C.3   257  SER257      0.2103
     42  OG        42.2380   46.1870   11.8570 O.3   257  SER257     -0.2182
     43  N         39.6800   49.6930   11.9630 N.am  258  ASP258     -0.1973
     44  CA        39.2050   51.0450   12.2570 C.3   258  ASP258      0.1709
     45  C         37.8060   51.0260   12.8640 C.2   258  ASP258      0.2293
     46  O         37.5660   51.5960   13.9260 O.2   258  ASP258     -0.2864
     47  CB        39.1830   51.8960   10.9800 C.3   258  ASP258      0.1436
     48  CG        40.5300   52.5420   10.6720 C.2   258  ASP258      0.3671
     49  OD1       41.5790   51.9500   10.9980 O.co2 258  ASP258     -0.2456
     50  OD2       40.5330   53.6450   10.0840 O.co2 258  ASP258     -0.2456
     51  N         36.2510   50.9120   16.7460 N.3   261  ARG261     -0.1245
     52  CA        36.1620   52.0620   17.6270 C.3   261  ARG261      0.1563
     53  C         34.8150   52.7820   17.6400 C.2   261  ARG261      0.2260
     54  O         34.5260   53.5420   18.5630 O.2   261  ARG261     -0.2867
     55  CB        37.2860   53.0480   17.2880 C.3   261  ARG261      0.0307
     56  CG        38.6740   52.4800   17.5800 C.3   261  ARG261      0.0489
     57  CD        39.7930   53.3700   17.0550 C.3   261  ARG261      0.2205
     58  NE        39.7010   53.5570   15.6080 N.pl3 261  ARG261     -0.0865
     59  CZ        40.7130   53.9390   14.8330 C.cat 261  ARG261      0.5346
     60  NH1       41.9090   54.1730   15.3600 N.pl3 261  ARG261      0.1354
     61  NH2       40.5240   54.0950   13.5280 N.pl3 261  ARG261      0.1354
     62  N         42.1830   40.9120   12.4930 N.3   313  LEU313     -0.1231
     63  CA        43.5820   41.0610   12.8710 C.3   313  LEU313      0.1693
     64  C         43.7080   41.4670   14.3440 C.2   313  LEU313      0.2592
     65  O         44.7410   41.2420   14.9750 O.2   313  LEU313     -0.2718
     66  CB        44.2520   42.1110   11.9830 C.3   313  LEU313      0.0284
     67  CG        45.7540   42.3380   12.1770 C.3   313  LEU313      0.0019
     68  CD1       46.5130   41.0530   11.8380 C.3   313  LEU313      0.0001
     69  CD2       46.2230   43.4860   11.2890 C.3   313  LEU313      0.0001
     70  N         42.6500   42.0630   14.8870 N.am  314  HIS314     -0.1976
     71  CA        42.6520   42.5040   16.2770 C.3   314  HIS314      0.1656
     72  C         41.3440   42.1080   16.9600 C.2   314  HIS314      0.2291
     73  O         40.5220   42.9670   17.3010 O.2   314  HIS314     -0.2864
     74  CB        42.8230   44.0210   16.3360 C.3   314  HIS314      0.0771
     75  CG        44.0600   44.5130   15.6530 C.ar  314  HIS314      0.0820
     76  ND1       45.3230   44.3250   16.1740 N.ar  314  HIS314     -0.2267
     77  CD2       44.2310   45.1640   14.4780 C.ar  314  HIS314      0.1154
     78  CE1       46.2180   44.8400   15.3500 C.ar  314  HIS314      0.1986
     79  NE2       45.5810   45.3540   14.3130 N.ar  314  HIS314     -0.2212
     80  N         51.1250   41.9680   17.3670 N.3   352  ARG352     -0.1245
     81  CA        49.9190   42.6810   16.9460 C.3   352  ARG352      0.1563
     82  C         49.1390   43.2100   18.1420 C.2   352  ARG352      0.2260
     83  O         48.0050   43.6690   18.0010 O.2   352  ARG352     -0.2867
     84  CB        49.0200   41.7560   16.1270 C.3   352  ARG352      0.0307
     85  CG        49.5820   41.3950   14.7650 C.3   352  ARG352      0.0489
     86  CD        49.7140   42.6380   13.9080 C.3   352  ARG352      0.2205
     87  NE        50.2130   42.3470   12.5690 N.pl3 352  ARG352     -0.0865
     88  CZ        50.3290   43.2580   11.6080 C.cat 352  ARG352      0.5346
     89  NH1       49.9780   44.5180   11.8410 N.pl3 352  ARG352      0.1354
     90  NH2       50.7940   42.9090   10.4150 N.pl3 352  ARG352      0.1354
     91  N         49.6600   45.9300   20.0890 N.3   354  TYR354     -0.1227
     92  CA        49.4820   47.3770   20.1600 C.3   354  TYR354      0.1736
     93  C         48.0420   47.8910   20.0510 C.2   354  TYR354      0.2595
     94  O         47.5100   48.4590   21.0060 O.2   354  TYR354     -0.2718
     95  CB        50.3460   48.0600   19.0950 C.3   354  TYR354      0.0548
     96  CG        49.9310   49.4800   18.7810 C.ar  354  TYR354     -0.0200
     97  CD1       50.1770   50.5190   19.6750 C.ar  354  TYR354     -0.0009
     98  CD2       49.2620   49.7760   17.5920 C.ar  354  TYR354     -0.0009
     99  CE1       49.7630   51.8280   19.3920 C.ar  354  TYR354      0.0417
    100  CE2       48.8440   51.0700   17.2980 C.ar  354  TYR354      0.0417
    101  CZ        49.0980   52.0910   18.2000 C.ar  354  TYR354      0.1957
    102  OH        48.6930   53.3700   17.8950 O.3   354  TYR354     -0.2866
    103  N         47.4200   47.6940   18.8930 N.am  355  TYR355     -0.1976
    104  CA        46.0590   48.1730   18.6670 C.3   355  TYR355      0.1639
    105  C         45.0500   47.5880   19.6520 C.2   355  TYR355      0.2290
    106  O         44.2250   48.3190   20.2060 O.2   355  TYR355     -0.2864
    107  CB        45.6180   47.8670   17.2270 C.3   355  TYR355      0.0560
    108  CG        44.3480   48.5860   16.8050 C.ar  355  TYR355     -0.0198
    109  CD1       44.2930   49.9790   16.7610 C.ar  355  TYR355     -0.0009
    110  CD2       43.2040   47.8740   16.4470 C.ar  355  TYR355     -0.0009
    111  CE1       43.1280   50.6500   16.3690 C.ar  355  TYR355      0.0417
    112  CE2       42.0370   48.5310   16.0530 C.ar  355  TYR355      0.0417
    113  CZ        42.0060   49.9160   16.0150 C.ar  355  TYR355      0.1957
    114  OH        40.8600   50.5650   15.6150 O.3   355  TYR355     -0.2866
@<TRIPOS>BOND
     1    15    14    2
     2    50    48   ar
     3    90    88    1
     4    27    25    1
     5    48    47    1
     6    48    49   ar
     7    14    13    1
     8    14    16   am
     9    47    44    1
    10    69    67    1
    11    26    25    1
    12    25    24    2
    13    13    10    1
    14    12    11    2
    15    37    38    1
    16    88    89    1
    17    88    87    2
    18    68    67    1
    19    42    41    1
    20    10    11    1
    21    10     9    1
    22    43    44    1
    23    43    39   am
    24    66    67    1
    25    66    63    1
    26    41    38    1
    27    44    45    1
    28    24    23    1
    29    62    63    1
    30    38    39    1
    31    87    86    1
    32    45    46    2
    33    63    64    1
    34    39    40    2
    35    23    22    1
    36    61    59    1
    37    22    21    1
    38    86    85    1
    39     8     6   ar
    40    79    77   ar
    41    79    78   ar
    42    64    70   am
    43    64    65    2
    44    77    75   ar
    45    21    18    1
    46    85    84    1
    47     6     7   ar
    48     6     5    1
    49    59    60    1
    50    59    58    2
    51    70    71    1
    52    18    17    1
    53    18    19    1
    54    78    76   ar
    55    36    34   ar
    56     5     2    1
    57    58    57    1
    58   114   113    1
    59    75    76   ar
    60    75    74    1
    61     4     3    2
    62    35    34   ar
    63    34    33    1
    64   113   112   ar
    65   113   111   ar
    66    32    33    1
    67    32    29    1
    68   112   110   ar
    69    19    20    2
    70    84    81    1
    71    71    74    1
    72    71    72    1
    73    28    29    1
    74   111   109   ar
    75   110   108   ar
    76     3     2    1
    77    51    52    1
    78   109   108   ar
    79   108   107    1
    80     2     1    1
    81    29    30    1
    82    81    80    1
    83    81    82    1
    84    72    73    2
    85    57    56    1
    86   107   104    1
    87    55    56    1
    88    55    52    1
    89   100    98   ar
    90   100   101   ar
    91    98    96   ar
    92    52    53    1
    93    53    54    2
    94   102   101    1
    95    83    82    2
    96   101    99   ar
    97    30    31    2
    98   104   103    1
    99   104   105    1
   100    96    95    1
   101    96    97   ar
   102   103    93   am
   103    95    92    1
   104    99    97   ar
   105   105   106    2
   106    93    92    1
   107    93    94    2
   108    91    92    1
