@<TRIPOS>MOLECULE
tmp/1wu6A00.pdb
 158 154 0 0 0
SMALL
GASTEIGER

@<TRIPOS>ATOM
      1  N         53.3970   56.7290   15.6030 N.3    63  ARG63      -0.1245
      2  CA        52.3020   57.4510   14.9550 C.3    63  ARG63       0.1563
      3  C         51.6210   58.4830   15.8390 C.2    63  ARG63       0.2260
      4  O         51.5480   58.3150   17.0550 O.2    63  ARG63      -0.2867
      5  CB        51.2800   56.4330   14.4430 C.3    63  ARG63       0.0307
      6  CG        51.9250   55.4240   13.5100 C.3    63  ARG63       0.0489
      7  CD        50.9680   54.3880   12.9580 C.3    63  ARG63       0.2205
      8  NE        51.6310   53.6790   11.8680 N.pl3  63  ARG63      -0.0865
      9  CZ        51.0150   52.9700   10.9300 C.cat  63  ARG63       0.5346
     10  NH1       49.6940   52.8470   10.9320 N.pl3  63  ARG63       0.1354
     11  NH2       51.7290   52.4160    9.9600 N.pl3  63  ARG63       0.1354
     12  N         48.5470   59.0600   16.1450 N.3    65  ALA65      -0.1245
     13  CA        47.3770   58.4910   16.8060 C.3    65  ALA65       0.1562
     14  C         47.8400   57.8520   18.1150 C.2    65  ALA65       0.2260
     15  O         47.2000   58.0070   19.1520 O.2    65  ALA65      -0.2867
     16  CB        46.7060   57.4480   15.9110 C.3    65  ALA65       0.0290
     17  N         52.4660   62.3870   10.6770 N.3   107  TRP107     -0.1241
     18  CA        51.7760   61.2290   11.2330 C.3   107  TRP107      0.1605
     19  C         52.5890   59.9940   11.5840 C.2   107  TRP107      0.2264
     20  O         52.2080   59.2470   12.4860 O.2   107  TRP107     -0.2867
     21  CB        50.6100   60.8200   10.3250 C.3   107  TRP107      0.0550
     22  CG        50.9670   59.8920    9.2000 C.ar  107  TRP107      0.0003
     23  CD1       51.4450   60.2330    7.9640 C.ar  107  TRP107      0.0946
     24  CD2       50.8460   58.4650    9.2040 C.ar  107  TRP107      0.0152
     25  NE1       51.6210   59.1040    7.1980 N.ar  107  TRP107     -0.2442
     26  CE2       51.2630   58.0050    7.9350 C.ar  107  TRP107      0.0810
     27  CE3       50.4240   57.5310   10.1600 C.ar  107  TRP107      0.0012
     28  CZ2       51.2680   56.6470    7.5940 C.ar  107  TRP107      0.0191
     29  CZ3       50.4290   56.1780    9.8210 C.ar  107  TRP107      0.0001
     30  CH2       50.8490   55.7510    8.5460 C.ar  107  TRP107      0.0015
     31  N         56.8790   60.7190    6.7590 N.3   117  SER117     -0.1217
     32  CA        55.9330   61.4580    5.9350 C.3   117  SER117      0.1889
     33  C         55.7880   62.8740    6.4780 C.2   117  SER117      0.2288
     34  O         56.0690   63.1230    7.6520 O.2   117  SER117     -0.2866
     35  CB        54.5700   60.7570    5.9750 C.3   117  SER117      0.2089
     36  OG        53.5580   61.5320    5.3550 O.3   117  SER117     -0.2183
     37  N         52.8700   64.3610    6.0030 N.3   119  GLY119     -0.1210
     38  CA        51.4240   64.4780    6.0160 C.3   119  GLY119      0.1940
     39  C         50.9340   64.1700    7.4200 C.2   119  GLY119      0.2454
     40  O         51.5460   63.3600    8.1190 O.2   119  GLY119     -0.2732
     41  N         49.8450   64.8080    7.8710 N.am  120  PRO120     -0.2717
     42  CA        49.3020   64.5750    9.2110 C.3   120  PRO120      0.1535
     43  C         48.0930   63.6360    9.2230 C.2   120  PRO120      0.2598
     44  O         47.5890   63.2370    8.1740 O.2   120  PRO120     -0.2715
     45  CB        48.9310   65.9770    9.6570 C.3   120  PRO120      0.0310
     46  CG        48.3340   66.5300    8.3950 C.3   120  PRO120      0.0237
     47  CD        49.2900   66.0500    7.2990 C.3   120  PRO120      0.0939
     48  N         47.6420   63.2940   10.4260 N.am  121  ALA121     -0.1978
     49  CA        46.4780   62.4280   10.6270 C.3   121  ALA121      0.1597
     50  C         45.5460   63.1560   11.5950 C.2   121  ALA121      0.2287
     51  O         45.8480   63.2800   12.7810 O.2   121  ALA121     -0.2864
     52  CB        46.9100   61.0880   11.2200 C.3   121  ALA121      0.0319
     53  N         42.9530   62.3980   13.2990 N.3   123  ASP123     -0.1239
     54  CA        42.5700   61.7770   14.5600 C.3   123  ASP123      0.1674
     55  C         43.6460   61.9910   15.6240 C.2   123  ASP123      0.2266
     56  O         43.3520   62.0040   16.8210 O.2   123  ASP123     -0.2867
     57  CB        42.2040   60.2900   14.3680 C.3   123  ASP123      0.1410
     58  CG        43.3410   59.4450   13.8340 C.2   123  ASP123      0.3668
     59  OD1       44.0670   59.8900   12.9230 O.co2 123  ASP123     -0.2456
     60  OD2       43.4830   58.3010   14.3180 O.co2 123  ASP123     -0.2456
     61  N         39.5570   62.8080    6.3890 N.3   182  PHE182     -0.1227
     62  CA        40.4850   61.6890    6.5580 C.3   182  PHE182      0.1736
     63  C         41.8960   62.2850    6.6210 C.2   182  PHE182      0.2595
     64  O         42.7070   61.8900    7.4600 O.2   182  PHE182     -0.2718
     65  CB        40.3620   60.7040    5.3920 C.3   182  PHE182      0.0547
     66  CG        41.5490   59.7940    5.2410 C.ar  182  PHE182     -0.0202
     67  CD1       41.9440   58.9550    6.2790 C.ar  182  PHE182     -0.0042
     68  CD2       42.2970   59.8070    4.0680 C.ar  182  PHE182     -0.0042
     69  CE1       43.0710   58.1450    6.1490 C.ar  182  PHE182     -0.0003
     70  CE2       43.4220   59.0030    3.9290 C.ar  182  PHE182     -0.0003
     71  CZ        43.8110   58.1700    4.9720 C.ar  182  PHE182     -0.0000
     72  N         42.1840   63.2110    5.7070 N.am  183  ILE183     -0.1980
     73  CA        43.4490   63.9500    5.6870 C.3   183  ILE183      0.1595
     74  C         43.1070   65.3320    5.1350 C.2   183  ILE183      0.2287
     75  O         42.0870   65.5040    4.4650 O.2   183  ILE183     -0.2864
     76  CB        44.5810   63.2710    4.8470 C.3   183  ILE183      0.0276
     77  CG1       44.1150   62.9790    3.4230 C.3   183  ILE183      0.0022
     78  CG2       45.0600   62.0110    5.5580 C.3   183  ILE183      0.0022
     79  CD1       45.2090   62.3630    2.5540 C.3   183  ILE183      0.0001
     80  N         37.0390   58.6110   13.2060 N.3   193  TYR193     -0.1241
     81  CA        37.6450   59.8910   13.5710 C.3   193  TYR193      0.1605
     82  C         36.6430   60.8480   14.2050 C.2   193  TYR193      0.2264
     83  O         37.0320   61.8590   14.7920 O.2   193  TYR193     -0.2867
     84  CB        38.2220   60.5850   12.3320 C.3   193  TYR193      0.0534
     85  CG        39.4890   59.9890   11.7470 C.ar  193  TYR193     -0.0201
     86  CD1       39.9310   58.7120   12.0990 C.ar  193  TYR193     -0.0009
     87  CD2       40.2330   60.7070   10.8120 C.ar  193  TYR193     -0.0009
     88  CE1       41.0880   58.1690   11.5270 C.ar  193  TYR193      0.0417
     89  CE2       41.3800   60.1760   10.2350 C.ar  193  TYR193      0.0417
     90  CZ        41.8030   58.9070   10.5950 C.ar  193  TYR193      0.1957
     91  OH        42.9300   58.3760   10.0110 O.3   193  TYR193     -0.2866
     92  N         36.8920   54.0090    5.8060 N.3   239  TYR239     -0.1241
     93  CA        36.8330   55.3040    5.1160 C.3   239  TYR239      0.1605
     94  C         35.4330   55.4290    4.5280 C.2   239  TYR239      0.2264
     95  O         34.8510   54.4390    4.0720 O.2   239  TYR239     -0.2867
     96  CB        37.8140   55.3980    3.9400 C.3   239  TYR239      0.0534
     97  CG        39.2950   55.4020    4.2510 C.ar  239  TYR239     -0.0201
     98  CD1       39.7750   55.2790    5.5570 C.ar  239  TYR239     -0.0009
     99  CD2       40.2220   55.4730    3.2120 C.ar  239  TYR239     -0.0009
    100  CE1       41.1480   55.2150    5.8100 C.ar  239  TYR239      0.0417
    101  CE2       41.5820   55.4120    3.4500 C.ar  239  TYR239      0.0417
    102  CZ        42.0440   55.2770    4.7470 C.ar  239  TYR239      0.1957
    103  OH        43.3970   55.1670    4.9640 O.3   239  TYR239     -0.2866
    104  N         39.6650   50.2970    1.9970 N.3   252  TYR252     -0.1241
    105  CA        39.2230   50.7580    3.3110 C.3   252  TYR252      0.1605
    106  C         37.7090   50.9150    3.4470 C.2   252  TYR252      0.2264
    107  O         37.2340   51.5760    4.3680 O.2   252  TYR252     -0.2867
    108  CB        39.8990   52.0950    3.6400 C.3   252  TYR252      0.0534
    109  CG        41.3810   51.9840    3.9050 C.ar  252  TYR252     -0.0201
    110  CD1       41.8590   51.6950    5.1840 C.ar  252  TYR252     -0.0009
    111  CD2       42.3060   52.1370    2.8730 C.ar  252  TYR252     -0.0009
    112  CE1       43.2250   51.5610    5.4280 C.ar  252  TYR252      0.0417
    113  CE2       43.6760   52.0030    3.1050 C.ar  252  TYR252      0.0417
    114  CZ        44.1260   51.7150    4.3850 C.ar  252  TYR252      0.1957
    115  OH        45.4780   51.5760    4.6220 O.3   252  TYR252     -0.2866
    116  N         40.2660   50.3660   11.7010 N.3   258  ASP258     -0.1239
    117  CA        39.7880   51.7100   12.0430 C.3   258  ASP258      0.1674
    118  C         38.3840   51.6900   12.6470 C.2   258  ASP258      0.2266
    119  O         38.1190   52.3270   13.6700 O.2   258  ASP258     -0.2867
    120  CB        39.7460   52.6030   10.8000 C.3   258  ASP258      0.1410
    121  CG        41.0970   53.1940   10.4370 C.2   258  ASP258      0.3668
    122  OD1       42.1350   52.5710   10.7260 O.co2 258  ASP258     -0.2456
    123  OD2       41.1120   54.2920    9.8340 O.co2 258  ASP258     -0.2456
    124  N         36.8660   51.4520   16.5040 N.3   261  ARG261     -0.1245
    125  CA        36.7580   52.5880   17.4050 C.3   261  ARG261      0.1563
    126  C         35.3930   53.2650   17.4340 C.2   261  ARG261      0.2260
    127  O         35.0640   53.9520   18.3980 O.2   261  ARG261     -0.2867
    128  CB        37.8590   53.6010   17.0770 C.3   261  ARG261      0.0307
    129  CG        39.2480   53.0170   17.2980 C.3   261  ARG261      0.0489
    130  CD        40.3650   53.9280   16.8170 C.3   261  ARG261      0.2205
    131  NE        40.3240   54.1290   15.3720 N.pl3 261  ARG261     -0.0865
    132  CZ        41.3520   54.5700   14.6540 C.cat 261  ARG261      0.5346
    133  NH1       42.5040   54.8530   15.2470 N.pl3 261  ARG261      0.1354
    134  NH2       41.2270   54.7390   13.3440 N.pl3 261  ARG261      0.1354
    135  N         50.2590   46.4810   19.7520 N.3   354  TYR354     -0.1227
    136  CA        50.0580   47.9170   19.9160 C.3   354  TYR354      0.1736
    137  C         48.6190   48.4250   19.8060 C.2   354  TYR354      0.2595
    138  O         48.0790   48.9890   20.7580 O.2   354  TYR354     -0.2718
    139  CB        50.9550   48.6670   18.9240 C.3   354  TYR354      0.0548
    140  CG        50.5390   50.0880   18.6190 C.ar  354  TYR354     -0.0200
    141  CD1       50.8020   51.1330   19.5070 C.ar  354  TYR354     -0.0009
    142  CD2       49.9030   50.3910   17.4170 C.ar  354  TYR354     -0.0009
    143  CE1       50.4440   52.4480   19.1940 C.ar  354  TYR354      0.0417
    144  CE2       49.5410   51.6920   17.0990 C.ar  354  TYR354      0.0417
    145  CZ        49.8150   52.7140   17.9880 C.ar  354  TYR354      0.1957
    146  OH        49.4630   54.0020   17.6510 O.3   354  TYR354     -0.2866
    147  N         47.9970   48.2260   18.6490 N.am  355  TYR355     -0.1976
    148  CA        46.6420   48.7180   18.4360 C.3   355  TYR355      0.1639
    149  C         45.6380   48.1060   19.4010 C.2   355  TYR355      0.2290
    150  O         44.8100   48.8140   19.9760 O.2   355  TYR355     -0.2864
    151  CB        46.2140   48.4580   16.9900 C.3   355  TYR355      0.0560
    152  CG        44.9610   49.1960   16.5790 C.ar  355  TYR355     -0.0198
    153  CD1       44.9240   50.5920   16.5560 C.ar  355  TYR355     -0.0009
    154  CD2       43.8170   48.5000   16.1960 C.ar  355  TYR355     -0.0009
    155  CE1       43.7750   51.2750   16.1570 C.ar  355  TYR355      0.0417
    156  CE2       42.6620   49.1750   15.7960 C.ar  355  TYR355      0.0417
    157  CZ        42.6510   50.5590   15.7780 C.ar  355  TYR355      0.1957
    158  OH        41.5220   51.2310   15.3660 O.3   355  TYR355     -0.2866
@<TRIPOS>BOND
     1   104   105    1
     2    79    77    1
     3   111   113   ar
     4   111   109   ar
     5   113   114   ar
     6    99   101   ar
     7    99    97   ar
     8   105   106    1
     9   105   108    1
    10    77    76    1
    11   106   107    2
    12   101   102   ar
    13   108   109    1
    14   109   110   ar
    15    70    68   ar
    16    70    71   ar
    17    96    97    1
    18    96    93    1
    19    68    66   ar
    20    95    94    2
    21    97    98   ar
    22   114   115    1
    23   114   112   ar
    24    75    74    2
    25    94    93    1
    26   102   103    1
    27   102   100   ar
    28    76    78    1
    29    76    73    1
    30    71    69   ar
    31    93    92    1
    32    74    73    1
    33   110   112   ar
    34    66    65    1
    35    66    67   ar
    36    36    35    1
    37    65    62    1
    38    98   100   ar
    39    73    72    1
    40    72    63   am
    41    32    35    1
    42    32    33    1
    43    32    31    1
    44    37    38    1
    45    38    39    1
    46    69    67   ar
    47    61    62    1
    48    33    34    2
    49    62    63    1
    50    63    64    2
    51    25    26   ar
    52    25    23   ar
    53    47    41    1
    54    47    46    1
    55    39    41   am
    56    39    40    2
    57    28    26   ar
    58    28    30   ar
    59    41    42    1
    60    26    24   ar
    61    23    22   ar
    62    44    43    2
    63    46    45    1
    64    30    29   ar
    65    22    24   ar
    66    22    21    1
    67    24    27   ar
    68    42    43    1
    69    42    45    1
    70    43    48   am
    71    29    27   ar
    72   123   121   ar
    73    11     9    1
    74    91    90    1
    75    89    90   ar
    76    89    87   ar
    77    21    18    1
    78    48    49    1
    79   121   122   ar
    80   121   120    1
    81    90    88   ar
    82    49    52    1
    83    49    50    1
    84    17    18    1
    85   120   117    1
    86    87    85   ar
    87     9    10    1
    88     9     8    2
    89    18    19    1
    90    88    86   ar
    91    19    20    2
    92    50    51    2
    93   116   117    1
    94    85    86   ar
    95    85    84    1
    96     8     7    1
    97   117   118    1
    98    84    81    1
    99   118   119    2
   100    59    58   ar
   101     7     6    1
   102    80    81    1
   103    53    54    1
   104   134   132    1
   105     6     5    1
   106    81    82    1
   107    58    60   ar
   108    58    57    1
   109    82    83    2
   110    57    54    1
   111     5     2    1
   112    54    55    1
   113   132   133    1
   114   132   131    2
   115     2     1    1
   116     2     3    1
   117   158   157    1
   118   131   130    1
   119    55    56    2
   120   157   156   ar
   121   157   155   ar
   122   156   154   ar
   123     3     4    2
   124    16    13    1
   125    12    13    1
   126   155   153   ar
   127   154   152   ar
   128   124   125    1
   129   153   152   ar
   130   152   151    1
   131    13    14    1
   132   130   129    1
   133   151   148    1
   134   128   129    1
   135   128   125    1
   136   144   142   ar
   137   144   145   ar
   138   125   126    1
   139   142   140   ar
   140   126   127    2
   141   146   145    1
   142   145   143   ar
   143    14    15    2
   144   148   147    1
   145   148   149    1
   146   140   139    1
   147   140   141   ar
   148   147   137   am
   149   139   136    1
   150   143   141   ar
   151   149   150    2
   152   135   136    1
   153   137   136    1
   154   137   138    2
