@<TRIPOS>MOLECULE
tmp/1wu8C01.pdb
 109 108 0 0 0
SMALL
GASTEIGER

@<TRIPOS>ATOM
      1  N        -45.6440   20.2780    7.5750 N.3     6  ASP6       -0.1225
      2  CA       -44.2580   19.9120    7.8060 C.3     6  ASP6        0.1805
      3  C        -44.2390   19.0520    9.0800 C.2     6  ASP6        0.2597
      4  O        -43.2160   18.9580    9.7590 O.2     6  ASP6       -0.2718
      5  CB       -43.4240   21.1790    8.0210 C.3     6  ASP6        0.1424
      6  CG       -43.8490   21.9510    9.2700 C.2     6  ASP6        0.3668
      7  OD1      -44.9870   21.7360    9.7560 O.co2   6  ASP6       -0.2456
      8  OD2      -43.0490   22.7780    9.7610 O.co2   6  ASP6       -0.2456
      9  N        -45.3730   18.4280    9.3980 N.am    7  PHE7       -0.1976
     10  CA       -45.4910   17.6130   10.6100 C.3     7  PHE7        0.1639
     11  C        -44.6110   16.3740   10.6570 C.2     7  PHE7        0.2290
     12  O        -44.2020   15.9460   11.7360 O.2     7  PHE7       -0.2864
     13  CB       -46.9380   17.1520   10.8270 C.3     7  PHE7        0.0560
     14  CG       -47.9260   18.2670   11.0050 C.ar    7  PHE7       -0.0200
     15  CD1      -47.5140   19.5940   11.0620 C.ar    7  PHE7       -0.0042
     16  CD2      -49.2840   17.9810   11.1120 C.ar    7  PHE7       -0.0042
     17  CE1      -48.4400   20.6260   11.2230 C.ar    7  PHE7       -0.0003
     18  CE2      -50.2230   18.9980   11.2730 C.ar    7  PHE7       -0.0003
     19  CZ       -49.7990   20.3300   11.3290 C.ar    7  PHE7       -0.0000
     20  N        -49.4780   13.5350   14.7940 N.3    13  TYR13      -0.1241
     21  CA       -49.9210   14.8550   14.3510 C.3    13  TYR13       0.1605
     22  C        -50.9110   14.8950   13.1870 C.2    13  TYR13       0.2264
     23  O        -51.9590   15.5210   13.3000 O.2    13  TYR13      -0.2867
     24  CB       -48.7010   15.7390   14.0540 C.3    13  TYR13       0.0534
     25  CG       -47.7930   15.9290   15.2580 C.ar   13  TYR13      -0.0201
     26  CD1      -46.4820   16.4000   15.1150 C.ar   13  TYR13      -0.0009
     27  CD2      -48.2350   15.6120   16.5400 C.ar   13  TYR13      -0.0009
     28  CE1      -45.6380   16.5450   16.2250 C.ar   13  TYR13       0.0417
     29  CE2      -47.4050   15.7530   17.6490 C.ar   13  TYR13       0.0417
     30  CZ       -46.1150   16.2160   17.4900 C.ar   13  TYR13       0.1957
     31  OH       -45.3210   16.3520   18.6070 O.3    13  TYR13      -0.2866
     32  N        -38.9890   20.8940    7.8020 N.3    37  ARG37      -0.1231
     33  CA       -39.4310   21.6250    8.9840 C.3    37  ARG37       0.1694
     34  C        -39.3150   23.1350    8.8610 C.2    37  ARG37       0.2592
     35  O        -38.2610   23.6590    8.5140 O.2    37  ARG37      -0.2718
     36  CB       -38.6510   21.1530   10.2130 C.3    37  ARG37       0.0321
     37  CG       -37.1420   21.2710   10.0810 C.3    37  ARG37       0.0489
     38  CD       -36.4550   20.7170   11.3210 C.3    37  ARG37       0.2205
     39  NE       -36.8970   21.4200   12.5240 N.pl3  37  ARG37      -0.0865
     40  CZ       -36.6970   20.9860   13.7650 C.cat  37  ARG37       0.5346
     41  NH1      -36.0560   19.8430   13.9770 N.pl3  37  ARG37       0.1354
     42  NH2      -37.1560   21.6850   14.7930 N.pl3  37  ARG37       0.1354
     43  N        -40.4160   23.8230    9.1450 N.am   38  HIS38      -0.1976
     44  CA       -40.4890   25.2800    9.1080 C.3    38  HIS38       0.1656
     45  C        -40.1940   25.9410    7.7650 C.2    38  HIS38       0.2291
     46  O        -40.1300   27.1710    7.6950 O.2    38  HIS38      -0.2864
     47  CB       -39.5360   25.8720   10.1400 C.3    38  HIS38       0.0771
     48  CG       -39.4000   25.0480   11.3810 C.ar   38  HIS38       0.0820
     49  ND1      -40.4780   24.6970   12.1640 N.ar   38  HIS38      -0.2267
     50  CD2      -38.3110   24.5030   11.9740 C.ar   38  HIS38       0.1154
     51  CE1      -40.0600   23.9690   13.1840 C.ar   38  HIS38       0.1986
     52  NE2      -38.7490   23.8370   13.0920 N.ar   38  HIS38      -0.2212
     53  N        -50.1820   23.9640    6.6550 N.3    62  VAL62      -0.1245
     54  CA       -49.6150   24.2620    7.9640 C.3    62  VAL62       0.1561
     55  C        -48.1140   24.0150    8.1260 C.2    62  VAL62       0.2260
     56  O        -47.6850   22.8980    8.4260 O.2    62  VAL62      -0.2867
     57  CB       -50.3280   23.4840    9.1060 C.3    62  VAL62       0.0252
     58  CG1      -49.8910   24.0460   10.4530 C.3    62  VAL62       0.0019
     59  CG2      -51.8320   23.5800    8.9640 C.3    62  VAL62       0.0019
     60  N        -45.9210   25.9600   10.3540 N.3    64  ASP64      -0.1225
     61  CA       -46.0820   27.0070   11.3540 C.3    64  ASP64       0.1790
     62  C        -45.0240   27.1170   12.4520 C.2    64  ASP64       0.2439
     63  O        -45.2550   26.6920   13.5850 O.2    64  ASP64      -0.2733
     64  CB       -47.4590   26.7960   12.0010 C.3    64  ASP64       0.1423
     65  CG       -48.0920   28.0720   12.4860 C.2    64  ASP64       0.3668
     66  OD1      -49.0960   27.9760   13.2200 O.co2  64  ASP64      -0.2456
     67  OD2      -47.6070   29.1630   12.1300 O.co2  64  ASP64      -0.2456
     68  N        -43.8610   27.7090   12.1410 N.am   65  PRO65      -0.2729
     69  CA       -42.8110   27.8450   13.1640 C.3    65  PRO65       0.1401
     70  C        -43.2190   28.8060   14.2870 C.2    65  PRO65       0.2269
     71  O        -42.7430   28.6940   15.4130 O.2    65  PRO65      -0.2865
     72  CB       -41.6140   28.3720   12.3710 C.3    65  PRO65       0.0296
     73  CG       -41.8870   27.8820   10.9520 C.3    65  PRO65       0.0237
     74  CD       -43.3650   28.1110   10.8120 C.3    65  PRO65       0.0939
     75  N        -46.2910   29.1560   15.5970 N.3    67  VAL67      -0.1245
     76  CA       -47.5540   28.7570   16.2050 C.3    67  VAL67       0.1561
     77  C        -47.6090   29.2550   17.6470 C.2    67  VAL67       0.2260
     78  O        -46.6490   29.1110   18.4020 O.2    67  VAL67      -0.2867
     79  CB       -47.7250   27.2060   16.1960 C.3    67  VAL67       0.0252
     80  CG1      -46.4900   26.5350   16.8010 C.3    67  VAL67       0.0019
     81  CG2      -48.9850   26.8110   16.9760 C.3    67  VAL67       0.0019
     82  N        -49.2390   25.1040   20.8160 N.3   121  THR121     -0.1203
     83  CA       -48.2790   24.5460   19.8740 C.3   121  THR121      0.1994
     84  C        -48.8390   23.7060   18.7270 C.2   121  THR121      0.2618
     85  O        -48.0750   23.2120   17.9000 O.2   121  THR121     -0.2717
     86  CB       -47.2310   23.7080   20.6310 C.3   121  THR121      0.1784
     87  OG1      -47.8780   22.6210   21.3050 O.3   121  THR121     -0.2211
     88  CG2      -46.5160   24.5720   21.6620 C.3   121  THR121      0.0376
     89  N        -50.1570   23.5510   18.6560 N.am  122  PHE122     -0.1961
     90  CA       -50.7430   22.7320   17.5970 C.3   122  PHE122      0.1771
     91  C        -52.0220   23.3300   17.0170 C.2   122  PHE122      0.2619
     92  O        -53.1070   22.7640   17.1590 O.2   122  PHE122     -0.2715
     93  CB       -51.0230   21.3200   18.1320 C.3   122  PHE122      0.0574
     94  CG       -51.1900   20.2720   17.0610 C.ar  122  PHE122     -0.0200
     95  CD1      -51.4620   18.9460   17.4120 C.ar  122  PHE122     -0.0042
     96  CD2      -51.0720   20.5920   15.7120 C.ar  122  PHE122     -0.0042
     97  CE1      -51.6110   17.9600   16.4370 C.ar  122  PHE122     -0.0003
     98  CE2      -51.2230   19.6020   14.7270 C.ar  122  PHE122     -0.0003
     99  CZ       -51.4910   18.2870   15.0900 C.ar  122  PHE122     -0.0000
    100  N        -51.8830   24.4670   16.3420 N.am  123  HIS123     -0.1973
    101  CA       -53.0230   25.1350   15.7480 C.3   123  HIS123      0.1656
    102  C        -53.5540   24.4250   14.5200 C.2   123  HIS123      0.2291
    103  O        -54.7100   24.6210   14.1390 O.2   123  HIS123     -0.2864
    104  CB       -52.6730   26.5810   15.4200 C.3   123  HIS123      0.0771
    105  CG       -52.5250   27.4410   16.6360 C.ar  123  HIS123      0.0820
    106  ND1      -52.3180   28.8030   16.5690 N.ar  123  HIS123     -0.2267
    107  CD2      -52.5650   27.1310   17.9550 C.ar  123  HIS123      0.1154
    108  CE1      -52.2400   29.2930   17.7930 C.ar  123  HIS123      0.1986
    109  NE2      -52.3860   28.3000   18.6520 N.ar  123  HIS123     -0.2212
@<TRIPOS>BOND
     1    53    54    1
     2     1     2    1
     3    46    45    2
     4    45    44    1
     5    32    33    1
     6     2     5    1
     7     2     3    1
     8    54    55    1
     9    54    57    1
    10     5     6    1
    11    55    56    2
    12    35    34    2
    13    34    33    1
    14    34    43   am
    15    59    57    1
    16    33    36    1
    17     3     9   am
    18     3     4    2
    19    57    58    1
    20    44    43    1
    21    44    47    1
    22     6     7   ar
    23     6     8   ar
    24     9    10    1
    25    37    36    1
    26    37    38    1
    27    47    48    1
    28    60    61    1
    29    10    11    1
    30    10    13    1
    31    11    12    2
    32    74    73    1
    33    74    68    1
    34    13    14    1
    35    73    72    1
    36    14    15   ar
    37    14    16   ar
    38    15    17   ar
    39    16    18   ar
    40    17    19   ar
    41    18    19   ar
    42    38    39    1
    43    61    64    1
    44    61    62    1
    45    48    50   ar
    46    48    49   ar
    47    50    52   ar
    48    64    65    1
    49    67    65   ar
    50    68    62   am
    51    68    69    1
    52    49    51   ar
    53    72    69    1
    54    62    63    2
    55    65    66   ar
    56    39    40    2
    57    52    51   ar
    58    69    70    1
    59    22    23    2
    60    22    21    1
    61    40    41    1
    62    40    42    1
    63    24    21    1
    64    24    25    1
    65   103   102    2
    66    70    71    2
    67    21    20    1
    68   102   101    1
    69    98    99   ar
    70    98    96   ar
    71    99    97   ar
    72    26    25   ar
    73    26    28   ar
    74    25    27   ar
    75   104   101    1
    76   104   105    1
    77    75    76    1
    78    96    94   ar
    79   101   100    1
    80    79    76    1
    81    79    80    1
    82    79    81    1
    83    76    77    1
    84    28    30   ar
    85   100    91   am
    86    97    95   ar
    87    27    29   ar
    88   106   105   ar
    89   106   108   ar
    90   105   107   ar
    91    91    92    2
    92    91    90    1
    93    94    95   ar
    94    94    93    1
    95    30    29   ar
    96    30    31    1
    97    90    93    1
    98    90    89    1
    99    77    78    2
   100   108   109   ar
   101    85    84    2
   102   107   109   ar
   103    89    84   am
   104    84    83    1
   105    83    86    1
   106    83    82    1
   107    86    87    1
   108    86    88    1
