@<TRIPOS>MOLECULE
tmp/1wuaA01.pdb
 196 190 0 0 0
SMALL
GASTEIGER

@<TRIPOS>ATOM
      1  N          6.2730   15.7250   10.9530 N.3   119  TYR119     -0.1241
      2  CA         6.0720   15.6940   12.3870 C.3   119  TYR119      0.1605
      3  C          6.9520   14.5850   12.9140 C.2   119  TYR119      0.2264
      4  O          7.2030   13.6180   12.1990 O.2   119  TYR119     -0.2867
      5  CB         4.6020   15.4100   12.7080 C.3   119  TYR119      0.0534
      6  CG         4.2230   15.6090   14.1620 C.ar  119  TYR119     -0.0201
      7  CD1        4.2480   14.5420   15.0630 C.ar  119  TYR119     -0.0009
      8  CD2        3.8120   16.8540   14.6340 C.ar  119  TYR119     -0.0009
      9  CE1        3.8830   14.7130   16.3840 C.ar  119  TYR119      0.0417
     10  CE2        3.4530   17.0340   15.9570 C.ar  119  TYR119      0.0417
     11  CZ         3.4920   15.9640   16.8300 C.ar  119  TYR119      0.1957
     12  OH         3.1380   16.1560   18.1520 O.3   119  TYR119     -0.2866
     13  N          7.1070   12.0040   16.1980 N.3   121  ALA121     -0.1231
     14  CA         6.4160   11.4620   17.3730 C.3   121  ALA121      0.1694
     15  C          7.2800   10.4340   18.0940 C.2   121  ALA121      0.2591
     16  O          8.0870    9.7310   17.4660 O.2   121  ALA121     -0.2718
     17  CB         5.0910   10.8160   16.9780 C.3   121  ALA121      0.0304
     18  N          7.0610   10.3190   19.3990 N.am  122  ILE122     -0.1980
     19  CA         7.7860    9.3670   20.2220 C.3   122  ILE122      0.1595
     20  C          7.2090    7.9750   20.0220 C.2   122  ILE122      0.2287
     21  O          6.0060    7.7850   20.0930 O.2   122  ILE122     -0.2864
     22  CB         7.7110    9.7640   21.7010 C.3   122  ILE122      0.0276
     23  CG1        8.4300   11.0940   21.9050 C.3   122  ILE122      0.0022
     24  CG2        8.3060    8.6930   22.5920 C.3   122  ILE122      0.0022
     25  CD1        9.9020   10.9640   21.9900 C.3   122  ILE122      0.0001
     26  N          4.7300    6.3950   22.5500 N.3   125  VAL125     -0.1245
     27  CA         3.4550    7.1090   22.5830 C.3   125  VAL125      0.1561
     28  C          2.5530    6.5850   21.4620 C.2   125  VAL125      0.2260
     29  O          1.3680    6.3030   21.6760 O.2   125  VAL125     -0.2867
     30  CB         3.6660    8.6430   22.4950 C.3   125  VAL125      0.0252
     31  CG1        2.3340    9.3710   22.3780 C.3   125  VAL125      0.0019
     32  CG2        4.4520    9.1230   23.6970 C.3   125  VAL125      0.0019
     33  N         -1.2740    4.7130   21.4810 N.3   129  TYR129     -0.1227
     34  CA        -2.4280    5.0850   20.6680 C.3   129  TYR129      0.1736
     35  C         -2.9540    3.8880   19.8940 C.2   129  TYR129      0.2595
     36  O         -4.1590    3.7220   19.7580 O.2   129  TYR129     -0.2718
     37  CB        -2.0760    6.1850   19.6780 C.3   129  TYR129      0.0548
     38  CG        -1.6070    7.5060   20.2620 C.ar  129  TYR129     -0.0200
     39  CD1       -0.9610    8.4320   19.4540 C.ar  129  TYR129     -0.0009
     40  CD2       -1.7950    7.8420   21.6000 C.ar  129  TYR129     -0.0009
     41  CE1       -0.5330    9.6440   19.9430 C.ar  129  TYR129      0.0417
     42  CE2       -1.3660    9.0760   22.1000 C.ar  129  TYR129      0.0417
     43  CZ        -0.7290    9.9660   21.2570 C.ar  129  TYR129      0.1957
     44  OH        -0.2690   11.1970   21.7010 O.3   129  TYR129     -0.2866
     45  N         -2.0510    3.0530   19.3890 N.am  130  ALA130     -0.1966
     46  CA        -2.4240    1.8570   18.6450 C.3   130  ALA130      0.1728
     47  C         -3.1930    0.8390   19.4870 C.2   130  ALA130      0.2617
     48  O         -3.8720   -0.0330   18.9220 O.2   130  ALA130     -0.2715
     49  CB        -1.2010    1.2060   18.0250 C.3   130  ALA130      0.0334
     50  N         -3.0670    0.9320   20.8150 N.am  131  SER131     -0.1936
     51  CA        -3.8220    0.0840   21.7390 C.3   131  SER131      0.2055
     52  C         -5.1670    0.6840   22.1040 C.2   131  SER131      0.2644
     53  O         -5.9040    0.0780   22.8810 O.2   131  SER131     -0.2714
     54  CB        -3.0330   -0.1990   23.0300 C.3   131  SER131      0.2130
     55  OG        -3.0640    0.8950   23.9450 O.3   131  SER131     -0.2179
     56  N         -5.4800    1.8650   21.5750 N.am  132  GLY132     -0.1939
     57  CA        -6.7740    2.5070   21.8200 C.3   132  GLY132      0.2014
     58  C         -6.8480    3.2830   23.1140 C.2   132  GLY132      0.2639
     59  O         -7.9270    3.4710   23.6640 O.2   132  GLY132     -0.2714
     60  N         -5.7020    3.7740   23.5740 N.am  133  ARG133     -0.1963
     61  CA        -5.5530    4.4370   24.8750 C.3   133  ARG133      0.1729
     62  C         -4.7530    5.7190   24.7380 C.2   133  ARG133      0.2616
     63  O         -3.8850    5.8060   23.8830 O.2   133  ARG133     -0.2715
     64  CB        -4.7480    3.5390   25.8420 C.3   133  ARG133      0.0348
     65  CG        -5.4890    2.3570   26.3640 C.3   133  ARG133      0.0492
     66  CD        -4.5450    1.4220   27.0700 C.3   133  ARG133      0.2205
     67  NE        -5.2480    0.2890   27.6970 N.pl3 133  ARG133     -0.0865
     68  CZ        -5.7440   -0.7410   27.0250 C.cat 133  ARG133      0.5346
     69  NH1       -5.6120   -0.8380   25.7070 N.pl3 133  ARG133      0.1354
     70  NH2       -6.3620   -1.7060   27.6770 N.pl3 133  ARG133      0.1354
     71  N         -5.0110    6.6780   25.6240 N.am  134  THR134     -0.1951
     72  CA        -4.1390    7.8460   25.7770 C.3   134  THR134      0.1897
     73  C         -3.4830    7.9540   27.1650 C.2   134  THR134      0.2313
     74  O         -2.6450    8.8330   27.3830 O.2   134  THR134     -0.2863
     75  CB        -4.8770    9.1550   25.4630 C.3   134  THR134      0.1794
     76  OG1       -6.0260    9.2680   26.3060 O.3   134  THR134     -0.2208
     77  CG2       -5.3050    9.1930   24.0100 C.3   134  THR134      0.0378
     78  N         -2.8820   11.3580   29.4850 N.3   153  GLU153     -0.1231
     79  CA        -3.6910   12.2390   28.6560 C.3   153  GLU153      0.1699
     80  C         -3.0010   12.5550   27.3260 C.2   153  GLU153      0.2593
     81  O         -3.0520   13.6790   26.8280 O.2   153  GLU153     -0.2718
     82  CB        -4.0660   13.5010   29.4480 C.3   153  GLU153      0.0402
     83  CG        -4.7750   13.1590   30.7640 C.3   153  GLU153      0.1161
     84  CD        -5.2270   14.3670   31.5640 C.2   153  GLU153      0.3649
     85  OE1       -4.6090   15.4420   31.4430 O.co2 153  GLU153     -0.2457
     86  OE2       -6.1930   14.2100   32.3390 O.co2 153  GLU153     -0.2457
     87  N         -2.3650   11.5340   26.7540 N.am  154  GLY154     -0.1942
     88  CA        -1.7740   11.6290   25.4300 C.3   154  GLY154      0.2014
     89  C         -0.2960   11.9840   25.3570 C.2   154  GLY154      0.2639
     90  O          0.2700   11.9320   24.2830 O.2   154  GLY154     -0.2714
     91  N          0.3280   12.3370   26.4780 N.am  155  TYR155     -0.1959
     92  CA         1.7270   12.7880   26.4590 C.3   155  TYR155      0.1771
     93  C          2.6160   11.9660   27.3690 C.2   155  TYR155      0.2619
     94  O          2.2590   11.6870   28.5080 O.2   155  TYR155     -0.2715
     95  CB         1.8370   14.2540   26.8920 C.3   155  TYR155      0.0574
     96  CG         1.2040   15.2180   25.9240 C.ar  155  TYR155     -0.0198
     97  CD1       -0.1550   15.4710   25.9740 C.ar  155  TYR155     -0.0009
     98  CD2        1.9600   15.8510   24.9490 C.ar  155  TYR155     -0.0009
     99  CE1       -0.7490   16.3520   25.0880 C.ar  155  TYR155      0.0417
    100  CE2        1.3800   16.7390   24.0570 C.ar  155  TYR155      0.0417
    101  CZ         0.0180   16.9830   24.1340 C.ar  155  TYR155      0.1957
    102  OH        -0.5740   17.8680   23.2530 O.3   155  TYR155     -0.2866
    103  N          3.7940   11.6150   26.8620 N.am  156  ALA156     -0.1977
    104  CA         4.8260   10.9960   27.6820 C.3   156  ALA156      0.1597
    105  C          5.1910   11.9190   28.8300 C.2   156  ALA156      0.2287
    106  O          5.1320   13.1460   28.7070 O.2   156  ALA156     -0.2864
    107  CB         6.0690   10.6840   26.8480 C.3   156  ALA156      0.0319
    108  N         -1.3940   -5.5340   28.5120 N.3   316  ILE316     -0.1245
    109  CA        -2.0070   -5.5990   27.1930 C.3   316  ILE316      0.1561
    110  C         -0.8920   -5.8570   26.1910 C.2   316  ILE316      0.2260
    111  O          0.0580   -5.0690   26.0850 O.2   316  ILE316     -0.2867
    112  CB        -2.7570   -4.3000   26.8500 C.3   316  ILE316      0.0252
    113  CG1       -3.8580   -4.0280   27.8880 C.3   316  ILE316      0.0019
    114  CG2       -3.3740   -4.3710   25.4540 C.3   316  ILE316      0.0019
    115  CD1       -3.4170   -3.1870   29.0430 C.3   316  ILE316      0.0001
    116  N         -0.8980   -6.6480   22.4200 N.3   318  PRO318     -0.2103
    117  CA        -1.6180   -6.8250   21.1660 C.3   318  PRO318      0.1489
    118  C         -0.9040   -7.7860   20.2090 C.2   318  PRO318      0.2418
    119  O          0.3270   -7.7830   20.1440 O.2   318  PRO318     -0.2734
    120  CB        -1.6790   -5.3950   20.6040 C.3   318  PRO318      0.0282
    121  CG        -1.5790   -4.5380   21.7800 C.3   318  PRO318      0.0208
    122  CD        -0.5940   -5.2260   22.6620 C.3   318  PRO318      0.0893
    123  N         -1.6590   -8.6140   19.4670 N.am  319  PRO319     -0.2718
    124  CA        -1.0140   -9.5440   18.5350 C.3   319  PRO319      0.1535
    125  C         -0.1130   -8.8730   17.4970 C.2   319  PRO319      0.2598
    126  O          0.8990   -9.4440   17.0790 O.2   319  PRO319     -0.2715
    127  CB        -2.2040  -10.2370   17.8560 C.3   319  PRO319      0.0310
    128  CG        -3.3140  -10.0650   18.7770 C.3   319  PRO319      0.0237
    129  CD        -3.1210   -8.7720   19.4820 C.3   319  PRO319      0.0939
    130  N         -0.4930   -7.6680   17.0950 N.am  320  GLU320     -0.1978
    131  CA         0.2210   -6.9160   16.0660 C.3   320  GLU320      0.1602
    132  C          1.3710   -6.0620   16.6120 C.2   320  GLU320      0.2287
    133  O          1.8990   -5.2010   15.9090 O.2   320  GLU320     -0.2864
    134  CB        -0.7800   -6.0240   15.3130 C.3   320  GLU320      0.0415
    135  CG        -1.3650   -4.8340   16.1100 C.3   320  GLU320      0.1163
    136  CD        -2.4380   -5.1670   17.1520 C.2   320  GLU320      0.3649
    137  OE1       -2.8810   -4.2160   17.8260 O.co2 320  GLU320     -0.2457
    138  OE2       -2.8380   -6.3360   17.3180 O.co2 320  GLU320     -0.2457
    139  N          1.8000    1.4660   13.4780 N.3   327  ILE327     -0.1245
    140  CA         0.3340    1.5140   13.4160 C.3   327  ILE327      0.1561
    141  C         -0.1880    2.7530   14.1240 C.2   327  ILE327      0.2260
    142  O         -1.0540    3.4540   13.6180 O.2   327  ILE327     -0.2867
    143  CB        -0.2900    0.2400   14.0020 C.3   327  ILE327      0.0252
    144  CG1        0.0340   -0.9460   13.0910 C.3   327  ILE327      0.0019
    145  CG2       -1.8170    0.4010   14.1560 C.3   327  ILE327      0.0019
    146  CD1       -0.1810   -2.3030   13.7260 C.3   327  ILE327      0.0001
    147  N         -2.4790    5.7550   12.5600 N.3   331  ILE331     -0.1231
    148  CA        -3.7320    6.2230   13.1500 C.3   331  ILE331      0.1692
    149  C         -3.6480    7.7230   13.4170 C.2   331  ILE331      0.2591
    150  O         -4.5510    8.4800   13.0650 O.2   331  ILE331     -0.2718
    151  CB        -4.0610    5.4590   14.4510 C.3   331  ILE331      0.0266
    152  CG1       -4.3220    3.9880   14.1480 C.3   331  ILE331      0.0019
    153  CG2       -5.3110    6.0270   15.1310 C.3   331  ILE331      0.0020
    154  CD1       -4.3690    3.1240   15.3860 C.3   331  ILE331      0.0001
    155  N         -2.5620    8.1670   14.0350 N.am  332  LEU332     -0.1980
    156  CA        -2.4250    9.5780   14.3890 C.3   332  LEU332      0.1596
    157  C         -2.4230   10.4590   13.1470 C.2   332  LEU332      0.2287
    158  O         -3.1330   11.4720   13.0990 O.2   332  LEU332     -0.2864
    159  CB        -1.1360    9.8020   15.1880 C.3   332  LEU332      0.0297
    160  CG        -0.8440   11.2540   15.5680 C.3   332  LEU332      0.0022
    161  CD1       -1.8780   11.7890   16.5460 C.3   332  LEU332      0.0001
    162  CD2        0.5720   11.3560   16.1290 C.3   332  LEU332      0.0001
    163  N         -5.8630   11.2170   11.6130 N.3   335  LEU335     -0.1245
    164  CA        -6.8850   11.9570   12.3490 C.3   335  LEU335      0.1561
    165  C         -7.0820   13.3120   11.7330 C.2   335  LEU335      0.2260
    166  O         -6.1120   14.0140   11.4650 O.2   335  LEU335     -0.2867
    167  CB        -6.4650   12.2070   13.7920 C.3   335  LEU335      0.0270
    168  CG        -6.7280   11.1840   14.8670 C.3   335  LEU335      0.0019
    169  CD1       -6.1960   11.7470   16.1670 C.3   335  LEU335      0.0001
    170  CD2       -8.2180   10.8770   14.9570 C.3   335  LEU335      0.0001
    171  N         -8.1160   15.9480   13.1930 N.3   337  THR337     -0.1203
    172  CA        -7.5800   16.9270   14.1420 C.3   337  THR337      0.1994
    173  C         -6.0520   16.9780   14.2200 C.2   337  THR337      0.2617
    174  O         -5.5020   17.8860   14.8350 O.2   337  THR337     -0.2717
    175  CB        -8.0980   16.6650   15.5550 C.3   337  THR337      0.1784
    176  OG1       -7.9030   15.2830   15.8700 O.3   337  THR337     -0.2211
    177  CG2       -9.5760   17.0100   15.6520 C.3   337  THR337      0.0376
    178  N         -5.3720   15.9980   13.6260 N.am  338  PHE338     -0.1975
    179  CA        -3.9140   16.0280   13.5400 C.3   338  PHE338      0.1639
    180  C         -3.4110   16.9160   12.4090 C.2   338  PHE338      0.2290
    181  O         -2.2660   17.3480   12.4290 O.2   338  PHE338     -0.2864
    182  CB        -3.3470   14.6100   13.3640 C.3   338  PHE338      0.0560
    183  CG        -1.8360   14.5600   13.3360 C.ar  338  PHE338     -0.0200
    184  CD1       -1.1070   14.7470   14.4900 C.ar  338  PHE338     -0.0042
    185  CD2       -1.1480   14.3650   12.1490 C.ar  338  PHE338     -0.0042
    186  CE1        0.2860   14.7140   14.4620 C.ar  338  PHE338     -0.0003
    187  CE2        0.2400   14.3340   12.1210 C.ar  338  PHE338     -0.0003
    188  CZ         0.9470   14.5070   13.2700 C.ar  338  PHE338     -0.0000
    189  N         -1.5560   19.9480   13.1190 N.3   341  MET341     -0.1245
    190  CA        -0.3310   19.7540   13.8900 C.3   341  MET341      0.1570
    191  C          0.9100   19.5110   13.0380 C.2   341  MET341      0.2261
    192  O          2.0210   19.6530   13.5440 O.2   341  MET341     -0.2867
    193  CB        -0.4970   18.6020   14.8730 C.3   341  MET341      0.0387
    194  CG        -1.5540   18.8820   15.9180 C.3   341  MET341      0.0595
    195  SD        -1.7670   17.5470   17.0860 S.3   341  MET341     -0.1393
    196  CE        -0.1210   17.4350   17.7630 C.3   341  MET341      0.0692
@<TRIPOS>BOND
     1     1     2    1
     2   166   165    2
     3   163   164    1
     4   165   164    1
     5   187   185   ar
     6   187   188   ar
     7   185   183   ar
     8     4     3    2
     9   164   167    1
    10     2     5    1
    11     2     3    1
    12   180   181    2
    13   180   179    1
    14   147   148    1
    15     5     6    1
    16   191   192    2
    17   191   190    1
    18   150   149    2
    19   144   146    1
    20   144   143    1
    21   158   157    2
    22   189   190    1
    23   157   156    1
    24   148   149    1
    25   148   151    1
    26   171   172    1
    27   188   186   ar
    28   183   182    1
    29   183   184   ar
    30   182   179    1
    31   140   139    1
    32   140   143    1
    33   140   141    1
    34   149   155   am
    35   179   178    1
    36   142   141    2
    37   178   173   am
    38   167   168    1
    39   190   193    1
    40   143   145    1
    41   155   156    1
    42   172   173    1
    43   172   175    1
    44   152   151    1
    45   152   154    1
    46     6     8   ar
    47     6     7   ar
    48   173   174    2
    49   156   159    1
    50   151   153    1
    51   186   184   ar
    52     8    10   ar
    53   168   170    1
    54   168   169    1
    55   193   194    1
    56     7     9   ar
    57   159   160    1
    58   134   131    1
    59   134   135    1
    60   175   177    1
    61   175   176    1
    62   160   162    1
    63   160   161    1
    64   133   132    2
    65   194   195    1
    66    10    11   ar
    67   131   132    1
    68   131   130    1
    69   135   136    1
    70    13    14    1
    71     9    11   ar
    72    11    12    1
    73    17    14    1
    74   126   125    2
    75   195   196    1
    76   130   125   am
    77   136   138   ar
    78   136   137   ar
    79    14    15    1
    80    16    15    2
    81   125   124    1
    82   127   124    1
    83   127   128    1
    84    49    46    1
    85    15    18   am
    86   124   123    1
    87    46    45    1
    88    46    47    1
    89   128   129    1
    90    48    47    2
    91    45    35   am
    92    18    19    1
    93    39    41   ar
    94    39    38   ar
    95   123   129    1
    96   123   118   am
    97    47    50   am
    98    37    38    1
    99    37    34    1
   100    36    35    2
   101    35    34    1
   102    41    43   ar
   103    20    21    2
   104    20    19    1
   105   119   118    2
   106   118   117    1
   107    19    22    1
   108    38    40   ar
   109   120   117    1
   110   120   121    1
   111    34    33    1
   112    50    51    1
   113   117   116    1
   114    43    44    1
   115    43    42   ar
   116    28    29    2
   117    28    27    1
   118    56    57    1
   119    56    52   am
   120    40    42   ar
   121    22    23    1
   122    22    24    1
   123    51    52    1
   124    51    54    1
   125   121   122    1
   126    57    58    1
   127    23    25    1
   128    52    53    2
   129    31    30    1
   130   116   122    1
   131    30    27    1
   132    30    32    1
   133    26    27    1
   134    54    55    1
   135    58    60   am
   136    58    59    2
   137   102   101    1
   138    60    61    1
   139    63    62    2
   140    77    75    1
   141   100   101   ar
   142   100    98   ar
   143   101    99   ar
   144    90    89    2
   145    62    61    1
   146    62    71   am
   147    61    64    1
   148    98    96   ar
   149    99    97   ar
   150    89    88    1
   151    89    91   am
   152    88    87    1
   153   114   112    1
   154    75    72    1
   155    75    76    1
   156    71    72    1
   157    69    68    1
   158    72    73    1
   159    64    65    1
   160    96    97   ar
   161    96    95    1
   162   111   110    2
   163   110   109    1
   164    65    66    1
   165    92    91    1
   166    92    95    1
   167    92    93    1
   168    87    80   am
   169    81    80    2
   170   107   104    1
   171   112   109    1
   172   112   113    1
   173   103    93   am
   174   103   104    1
   175    68    70    1
   176    68    67    2
   177    66    67    1
   178    73    74    2
   179   109   108    1
   180    80    79    1
   181    93    94    2
   182   104   105    1
   183   113   115    1
   184    79    82    1
   185    79    78    1
   186   106   105    2
   187    82    83    1
   188    83    84    1
   189    85    84   ar
   190    84    86   ar
