@<TRIPOS>MOLECULE
tmp/1wumA00.pdb
 90 90 0 0 0
SMALL
GASTEIGER

@<TRIPOS>ATOM
      1  N         -7.5430    0.0570    8.3870 N.3    32  TRP32      -0.1228
      2  CA        -8.5720   -1.0160    8.6130 C.3    32  TRP32       0.1722
      3  C         -9.1730   -1.4850    7.2830 C.2    32  TRP32       0.2437
      4  O         -9.3500   -2.6680    7.0720 O.2    32  TRP32      -0.2733
      5  CB        -9.7410   -0.4360    9.4580 C.3    32  TRP32       0.0563
      6  CG        -9.4580    0.8960   10.0790 C.ar   32  TRP32       0.0003
      7  CD1       -8.5500    1.1470   11.0480 C.ar   32  TRP32       0.0946
      8  CD2      -10.1430    2.1490    9.8190 C.ar   32  TRP32       0.0152
      9  NE1       -8.6150    2.4930   11.3760 N.ar   32  TRP32      -0.2442
     10  CE2       -9.5820    3.1520   10.6390 C.ar   32  TRP32       0.0810
     11  CE3      -11.1760    2.5050    8.9310 C.ar   32  TRP32       0.0012
     12  CZ2      -10.0350    4.4710   10.5870 C.ar   32  TRP32       0.0191
     13  CZ3      -11.6290    3.8320    8.8710 C.ar   32  TRP32       0.0001
     14  CH2      -11.0620    4.8130    9.7000 C.ar   32  TRP32       0.0015
     15  N         -9.6000   -0.5310    6.4890 N.am   33  PRO33      -0.2729
     16  CA       -10.2940   -0.8460    5.2210 C.3    33  PRO33       0.1401
     17  C         -9.3760   -1.6330    4.2850 C.2    33  PRO33       0.2269
     18  O         -9.8180   -2.2370    3.3270 O.2    33  PRO33      -0.2865
     19  CB       -10.6270    0.5360    4.6440 C.3    33  PRO33       0.0296
     20  CG       -10.5670    1.4430    5.8280 C.3    33  PRO33       0.0237
     21  CD        -9.4710    0.9120    6.6730 C.3    33  PRO33       0.0939
     22  N         -8.8390   -5.8250    5.8640 N.3    36  GLU36      -0.1245
     23  CA        -9.8450   -6.8080    5.3750 C.3    36  GLU36       0.1567
     24  C        -10.1530   -6.5400    3.8980 C.2    36  GLU36       0.2260
     25  O        -10.3800   -5.4090    3.5180 O.2    36  GLU36      -0.2867
     26  CB       -11.0920   -6.5450    6.2270 C.3    36  GLU36       0.0388
     27  CG       -12.2540   -7.3940    5.7160 C.3    36  GLU36       0.1160
     28  CD       -12.9080   -8.1270    6.8890 C.2    36  GLU36       0.3649
     29  OE1      -12.3840   -9.1550    7.2880 O.co2  36  GLU36      -0.2457
     30  OE2      -13.9230   -7.6480    7.3690 O.co2  36  GLU36      -0.2457
     31  N        -12.1300   -5.8940    0.8080 N.3    38  VAL38      -0.1245
     32  CA       -13.5180   -5.3920    0.6070 C.3    38  VAL38       0.1561
     33  C        -14.2130   -6.2110   -0.4850 C.2    38  VAL38       0.2260
     34  O        -13.7600   -6.2790   -1.6100 O.2    38  VAL38      -0.2867
     35  CB       -13.3460   -3.9240    0.1850 C.3    38  VAL38       0.0252
     36  CG1      -14.6530   -3.3770   -0.4070 C.3    38  VAL38       0.0019
     37  CG2      -12.9630   -3.0900    1.4090 C.3    38  VAL38       0.0019
     38  N        -20.3770   -4.6320   -0.4770 N.3    42  GLU42      -0.1231
     39  CA       -20.3780   -3.6970    0.6920 C.3    42  GLU42       0.1699
     40  C        -19.8470   -2.3160    0.2950 C.2    42  GLU42       0.2592
     41  O        -20.1530   -1.3240    0.9250 O.2    42  GLU42      -0.2718
     42  CB       -19.4690   -4.3300    1.7590 C.3    42  GLU42       0.0402
     43  CG       -18.1440   -4.8050    1.1560 C.3    42  GLU42       0.1161
     44  CD       -17.3040   -5.4490    2.2640 C.2    42  GLU42       0.3649
     45  OE1      -17.4020   -4.9970    3.3960 O.co2  42  GLU42      -0.2457
     46  OE2      -16.5880   -6.3890    1.9680 O.co2  42  GLU42      -0.2457
     47  N        -19.0730   -2.2350   -0.7530 N.am   43  ALA43      -0.1966
     48  CA       -18.5430   -0.9090   -1.1760 C.3    43  ALA43       0.1713
     49  C        -19.4390   -0.2950   -2.2570 C.2    43  ALA43       0.2458
     50  O        -20.0270   -1.0080   -3.0460 O.2    43  ALA43      -0.2730
     51  CB       -17.1530   -1.2060   -1.7420 C.3    43  ALA43       0.0333
     52  N        -19.5250    1.0170   -2.2560 N.am   44  PRO44      -0.2727
     53  CA       -20.3510    1.7190   -3.2690 C.3    44  PRO44       0.1402
     54  C        -19.8450    1.3880   -4.6730 C.2    44  PRO44       0.2269
     55  O        -19.0810    2.1290   -5.2580 O.2    44  PRO44      -0.2865
     56  CB       -20.1430    3.2060   -2.9590 C.3    44  PRO44       0.0296
     57  CG       -18.9370    3.2700   -2.0750 C.3    44  PRO44       0.0237
     58  CD       -18.8460    1.9550   -1.3530 C.3    44  PRO44       0.0939
     59  N        -13.4570    4.5640   -4.8930 N.3    88  TYR88      -0.1227
     60  CA       -14.8070    3.9680   -4.6620 C.3    88  TYR88       0.1736
     61  C        -15.5550    4.7240   -3.5520 C.2    88  TYR88       0.2595
     62  O        -16.7410    4.9680   -3.6470 O.2    88  TYR88      -0.2718
     63  CB       -14.5430    2.4860   -4.2970 C.3    88  TYR88       0.0548
     64  CG       -14.3110    2.2950   -2.8070 C.ar   88  TYR88      -0.0200
     65  CD1      -15.3970    2.3200   -1.9210 C.ar   88  TYR88      -0.0009
     66  CD2      -13.0220    2.0480   -2.3220 C.ar   88  TYR88      -0.0009
     67  CE1      -15.1890    2.1320   -0.5500 C.ar   88  TYR88       0.0417
     68  CE2      -12.8140    1.8590   -0.9480 C.ar   88  TYR88       0.0417
     69  CZ       -13.8980    1.9000   -0.0640 C.ar   88  TYR88       0.1957
     70  OH       -13.6930    1.7130    1.2870 O.3    88  TYR88      -0.2866
     71  N        -14.8740    5.0850   -2.4990 N.am   89  ASN89      -0.1974
     72  CA       -15.5530    5.8090   -1.3870 C.3    89  ASN89       0.1688
     73  C        -15.5120    7.3250   -1.6250 C.2    89  ASN89       0.2292
     74  O        -14.4550    7.9230   -1.5760 O.2    89  ASN89      -0.2864
     75  CB       -14.7450    5.4490   -0.1390 C.3    89  ASN89       0.1181
     76  CG       -15.6900    5.3160    1.0570 C.2    89  ASN89       0.2629
     77  OD1      -15.5860    4.3810    1.8260 O.2    89  ASN89      -0.2716
     78  ND2      -16.6160    6.2160    1.2450 N.am   89  ASN89      -0.0877
     79  N        -13.1800    7.1180    5.8720 N.3    95  TYR95      -0.1241
     80  CA       -12.2040    6.2720    5.1320 C.3    95  TYR95       0.1605
     81  C        -11.3170    7.1480    4.2480 C.2    95  TYR95       0.2264
     82  O        -10.1280    6.9250    4.1310 O.2    95  TYR95      -0.2867
     83  CB       -13.0630    5.3410    4.2750 C.3    95  TYR95       0.0534
     84  CG       -13.8860    4.4500    5.1740 C.ar   95  TYR95      -0.0201
     85  CD1      -13.2540    3.4960    5.9800 C.ar   95  TYR95      -0.0009
     86  CD2      -15.2790    4.5820    5.2070 C.ar   95  TYR95      -0.0009
     87  CE1      -14.0150    2.6710    6.8170 C.ar   95  TYR95       0.0417
     88  CE2      -16.0400    3.7570    6.0440 C.ar   95  TYR95       0.0417
     89  CZ       -15.4080    2.8020    6.8490 C.ar   95  TYR95       0.1957
     90  OH       -16.1590    1.9890    7.6740 O.3    95  TYR95      -0.2866
@<TRIPOS>BOND
     1    55    54    2
     2    59    60    1
     3    54    53    1
     4    60    63    1
     5    60    61    1
     6    63    64    1
     7    62    61    2
     8    61    71   am
     9    53    56    1
    10    53    52    1
    11    50    49    2
    12    56    57    1
    13    64    66   ar
    14    64    65   ar
    15    71    72    1
    16    66    68   ar
    17    49    52   am
    18    49    48    1
    19    52    58    1
    20    57    58    1
    21    65    67   ar
    22    51    48    1
    23    73    74    2
    24    73    72    1
    25    34    33    2
    26    72    75    1
    27    48    47    1
    28    68    69   ar
    29    47    40   am
    30    67    69   ar
    31    33    32    1
    32    38    39    1
    33    36    35    1
    34    75    76    1
    35    69    70    1
    36    35    32    1
    37    35    37    1
    38    40    39    1
    39    40    41    2
    40    32    31    1
    41    39    42    1
    42    76    78   am
    43    76    77    2
    44    43    42    1
    45    43    44    1
    46    46    44   ar
    47    44    45   ar
    48    18    17    2
    49    25    24    2
    50    24    23    1
    51    82    81    2
    52    81    80    1
    53    83    80    1
    54    83    84    1
    55    17    16    1
    56    19    16    1
    57    19    20    1
    58    80    79    1
    59    84    86   ar
    60    84    85   ar
    61    86    88   ar
    62    16    15    1
    63    23    22    1
    64    23    26    1
    65    27    26    1
    66    27    28    1
    67    20    21    1
    68    85    87   ar
    69    88    89   ar
    70    15    21    1
    71    15     3   am
    72    87    89   ar
    73    89    90    1
    74    28    29   ar
    75    28    30   ar
    76     4     3    2
    77     3     2    1
    78     1     2    1
    79     2     5    1
    80    13    11   ar
    81    13    14   ar
    82    11     8   ar
    83     5     6    1
    84    14    12   ar
    85     8     6   ar
    86     8    10   ar
    87     6     7   ar
    88    12    10   ar
    89    10     9   ar
    90     7     9   ar
