@<TRIPOS>MOLECULE
tmp/1wurD01.pdb
 117 114 0 0 0
SMALL
GASTEIGER

@<TRIPOS>ATOM
      1  N         26.4700   10.2970   15.0810 N.3    77  CYS77      -0.1235
      2  CA        26.6700    9.5420   16.3160 C.3    77  CYS77       0.1677
      3  C         28.0660    9.8430   16.8510 C.2    77  CYS77       0.2270
      4  O         29.0460    9.7890   16.1120 O.2    77  CYS77      -0.2867
      5  CB        26.4940    8.0380   16.0990 C.3    77  CYS77       0.0956
      6  SG        27.8130    7.2400   15.1650 S.3    77  CYS77      -0.0801
      7  N         29.8930    8.1100   18.6290 N.3    79  HIS79      -0.1226
      8  CA        30.7300    6.9120   18.6530 C.3    79  HIS79       0.1752
      9  C         31.5020    6.6360   17.3590 C.2    79  HIS79       0.2596
     10  O         32.6700    6.2370   17.4050 O.2    79  HIS79      -0.2718
     11  CB        29.8860    5.6880   19.0060 C.3    79  HIS79       0.0759
     12  CG        29.1080    5.8380   20.2730 C.ar   79  HIS79       0.0818
     13  ND1       27.7640    6.1430   20.2890 N.ar   79  HIS79      -0.2268
     14  CD2       29.4860    5.7370   21.5690 C.ar   79  HIS79       0.1154
     15  CE1       27.3480    6.2240   21.5400 C.ar   79  HIS79       0.1986
     16  NE2       28.3740    5.9820   22.3360 N.ar   79  HIS79      -0.2212
     17  N         30.8580    6.8490   16.2140 N.am   80  HIS80      -0.1975
     18  CA        31.4920    6.5850   14.9170 C.3    80  HIS80       0.1656
     19  C         31.5670    7.7820   13.9780 C.2    80  HIS80       0.2291
     20  O         32.1550    7.6850   12.8980 O.2    80  HIS80      -0.2864
     21  CB        30.7460    5.4680   14.1800 C.3    80  HIS80       0.0771
     22  CG        30.6540    4.1880   14.9460 C.ar   80  HIS80       0.0820
     23  ND1       29.6050    3.9030   15.7910 N.ar   80  HIS80      -0.2267
     24  CD2       31.4750    3.1130   14.9870 C.ar   80  HIS80       0.1154
     25  CE1       29.7830    2.7060   16.3200 C.ar   80  HIS80       0.1986
     26  NE2       30.9110    2.2060   15.8490 N.ar   80  HIS80      -0.2212
     27  N         22.9640    9.5580   11.6130 N.3    84  PHE84      -0.1241
     28  CA        21.7890    8.8220   12.0580 C.3    84  PHE84       0.1605
     29  C         20.6880    9.8500   11.8570 C.2    84  PHE84       0.2264
     30  O         20.8910   11.0430   12.0900 O.2    84  PHE84      -0.2867
     31  CB        21.8960    8.2260   13.4770 C.3    84  PHE84       0.0534
     32  CG        21.7970    9.2120   14.6090 C.ar   84  PHE84      -0.0203
     33  CD1       22.9470    9.7650   15.1670 C.ar   84  PHE84      -0.0042
     34  CD2       20.5670    9.4860   15.2030 C.ar   84  PHE84      -0.0042
     35  CE1       22.8750   10.5720   16.3080 C.ar   84  PHE84      -0.0003
     36  CE2       20.4820   10.2930   16.3460 C.ar   84  PHE84      -0.0003
     37  CZ        21.6420   10.8340   16.8980 C.ar   84  PHE84      -0.0000
     38  N         26.0480   13.2040   18.7590 N.3   116  GLN116     -0.1231
     39  CA        24.9990   12.7550   19.6780 C.3   116  GLN116      0.1698
     40  C         24.8250   11.2580   19.8940 C.2   116  GLN116      0.2592
     41  O         25.5320   10.4320   19.3200 O.2   116  GLN116     -0.2718
     42  CB        23.6510   13.2710   19.1500 C.3   116  GLN116      0.0381
     43  CG        23.3220   14.7220   19.4370 C.3   116  GLN116      0.0905
     44  CD        22.7740   14.9150   20.8340 C.2   116  GLN116      0.2608
     45  OE1       22.8140   14.0040   21.6580 O.2   116  GLN116     -0.2717
     46  NE2       22.2450   16.1010   21.1030 N.am  116  GLN116     -0.0878
     47  N         23.8960   10.9530   20.8000 N.am  117  VAL117     -0.1966
     48  CA        23.4330    9.5990   21.1090 C.3   117  VAL117      0.1727
     49  C         21.9200    9.8650   21.0570 C.2   117  VAL117      0.2616
     50  O         21.4550   10.8870   21.5720 O.2   117  VAL117     -0.2715
     51  CB        23.8780    9.0640   22.5080 C.3   117  VAL117      0.0290
     52  CG1       25.3900    8.9260   22.5680 C.3   117  VAL117      0.0023
     53  CG2       23.3930    9.9480   23.6160 C.3   117  VAL117      0.0023
     54  N         21.1600    9.0050   20.3820 N.am  118  GLN118     -0.1963
     55  CA        19.7220    9.2360   20.2310 C.3   118  GLN118      0.1733
     56  C         18.9450    9.3920   21.5350 C.2   118  GLN118      0.2616
     57  O         17.9590   10.1250   21.5900 O.2   118  GLN118     -0.2715
     58  CB        19.0760    8.1650   19.3480 C.3   118  GLN118      0.0408
     59  CG        17.7220    8.5980   18.7890 C.3   118  GLN118      0.0908
     60  CD        17.0540    7.5310   17.9380 C.2   118  GLN118      0.2608
     61  OE1       17.6590    6.9850   17.0190 O.2   118  GLN118     -0.2717
     62  NE2       15.7960    7.2380   18.2400 N.am  118  GLN118     -0.0878
     63  N         19.3940    8.7010   22.5760 N.am  119  GLU119     -0.1977
     64  CA        18.7570    8.7720   23.8880 C.3   119  GLU119      0.1602
     65  C         18.8680   10.1740   24.4920 C.2   119  GLU119      0.2287
     66  O         17.9320   10.6530   25.1350 O.2   119  GLU119     -0.2864
     67  CB        19.3760    7.7450   24.8420 C.3   119  GLU119      0.0415
     68  CG        19.0670    6.2870   24.5060 C.3   119  GLU119      0.1163
     69  CD        20.0150    5.6680   23.4850 C.2   119  GLU119      0.3649
     70  OE1       20.7240    6.4000   22.7560 O.co2 119  GLU119     -0.2457
     71  OE2       20.0470    4.4230   23.4140 O.co2 119  GLU119     -0.2457
     72  N         20.3680    4.3080   11.9700 N.3   146  HIS146     -0.1241
     73  CA        21.7730    4.6060   12.2000 C.3   146  HIS146      0.1621
     74  C         22.6850    3.9770   11.1640 C.2   146  HIS146      0.2264
     75  O         22.7640    2.7560   11.0580 O.2   146  HIS146     -0.2867
     76  CB        22.1730    4.1320   13.6010 C.3   146  HIS146      0.0745
     77  CG        21.4180    4.8110   14.7020 C.ar  146  HIS146      0.0817
     78  ND1       22.0400    5.5510   15.6830 N.ar  146  HIS146     -0.2268
     79  CD2       20.0900    4.8870   14.9580 C.ar  146  HIS146      0.1154
     80  CE1       21.1290    6.0570   16.4940 C.ar  146  HIS146      0.1986
     81  NE2       19.9380    5.6690   16.0760 N.ar  146  HIS146     -0.2212
     82  N         25.8220    3.7060   11.2180 N.3   148  CYS148     -0.1221
     83  CA        26.9060    2.9240   11.8130 C.3   148  CYS148      0.1808
     84  C         26.4730    1.4650   12.0050 C.2   148  CYS148      0.2601
     85  O         27.3120    0.5810   12.1830 O.2   148  CYS148     -0.2717
     86  CB        27.3880    3.5410   13.1340 C.3   148  CYS148      0.0970
     87  SG        26.1910    3.5140   14.4450 S.3   148  CYS148     -0.0800
     88  N         25.1610    1.2270   11.9690 N.am  149  MET149     -0.1979
     89  CA        24.5970   -0.1160   12.0980 C.3   149  MET149      0.1605
     90  C         24.2630   -0.6890   10.7230 C.2   149  MET149      0.2287
     91  O         24.1940   -1.9020   10.5510 O.2   149  MET149     -0.2864
     92  CB        23.2970   -0.0920   12.9140 C.3   149  MET149      0.0413
     93  CG        23.4630    0.0060   14.4160 C.3   149  MET149      0.0598
     94  SD        21.8600   -0.0960   15.2600 S.3   149  MET149     -0.1393
     95  CE        21.2900   -1.7270   14.7420 C.3   149  MET149      0.0692
     96  N         28.0930   -0.5750    8.0080 N.3   152  ARG152     -0.1231
     97  CA        29.2750   -1.1990    8.5970 C.3   152  ARG152      0.1694
     98  C         28.8550   -1.9900    9.8290 C.2   152  ARG152      0.2593
     99  O         27.6700   -2.0420   10.1650 O.2   152  ARG152     -0.2718
    100  CB        30.2890   -0.1300    9.0090 C.3   152  ARG152      0.0321
    101  CG        29.7400    0.8650   10.0250 C.3   152  ARG152      0.0489
    102  CD        30.8470    1.4580   10.8770 C.3   152  ARG152      0.2205
    103  NE        31.5750    0.4230   11.6100 N.pl3 152  ARG152     -0.0865
    104  CZ        31.1460   -0.1530   12.7310 C.cat 152  ARG152      0.5346
    105  NH1       29.9850    0.2020   13.2670 N.pl3 152  ARG152      0.1354
    106  NH2       31.8620   -1.1150   13.2960 N.pl3 152  ARG152      0.1354
    107  N         29.8330   -2.5970   10.4990 N.am  153  GLY153     -0.1942
    108  CA        29.5510   -3.3710   11.6990 C.3   153  GLY153      0.2014
    109  C         28.5610   -4.4990   11.4800 C.2   153  GLY153      0.2638
    110  O         28.7850   -5.3640   10.6340 O.2   153  GLY153     -0.2714
    111  N         27.4530   -4.4770   12.2180 N.am  154  VAL154     -0.1977
    112  CA        26.4390   -5.5190   12.0930 C.3   154  VAL154      0.1596
    113  C         25.7140   -5.5230   10.7480 C.2   154  VAL154      0.2287
    114  O         25.1450   -6.5410   10.3530 O.2   154  VAL154     -0.2864
    115  CB        25.4060   -5.4710   13.2470 C.3   154  VAL154      0.0276
    116  CG1       26.1040   -5.7200   14.5690 C.3   154  VAL154      0.0022
    117  CG2       24.6640   -4.1360   13.2700 C.3   154  VAL154      0.0022
@<TRIPOS>BOND
     1    96    97    1
     2    97   100    1
     3    97    98    1
     4   100   101    1
     5    98    99    2
     6    98   107   am
     7   101   102    1
     8   114   113    2
     9   107   108    1
    10    91    90    2
    11   110   109    2
    12    90    89    1
    13   113   112    1
    14   102   103    1
    15    75    74    2
    16    74    73    1
    17    82    83    1
    18   109   108    1
    19   109   111   am
    20   103   104    2
    21    27    28    1
    22    83    84    1
    23    83    86    1
    24    29    28    1
    25    29    30    2
    26    88    84   am
    27    88    89    1
    28    72    73    1
    29    84    85    2
    30    28    31    1
    31   112   111    1
    32   112   115    1
    33    89    92    1
    34    73    76    1
    35   104   105    1
    36   104   106    1
    37    20    19    2
    38    92    93    1
    39    86    87    1
    40   115   117    1
    41   115   116    1
    42    31    32    1
    43    76    77    1
    44    19    18    1
    45    21    18    1
    46    21    22    1
    47    93    94    1
    48    32    33   ar
    49    32    34   ar
    50    77    79   ar
    51    77    78   ar
    52    95    94    1
    53    18    17    1
    54    22    24   ar
    55    22    23   ar
    56    79    81   ar
    57    24    26   ar
    58     1     2    1
    59     6     5    1
    60    33    35   ar
    61    34    36   ar
    62    78    80   ar
    63    23    25   ar
    64    26    25   ar
    65    81    80   ar
    66     5     2    1
    67     4     3    2
    68    17     9   am
    69    35    37   ar
    70     2     3    1
    71    36    37   ar
    72    61    60    2
    73     9    10    2
    74     9     8    1
    75    60    62   am
    76    60    59    1
    77     7     8    1
    78     8    11    1
    79    38    39    1
    80    59    58    1
    81    11    12    1
    82    42    43    1
    83    42    39    1
    84    41    40    2
    85    58    55    1
    86    43    44    1
    87    39    40    1
    88    40    47   am
    89    55    54    1
    90    55    56    1
    91    12    13   ar
    92    12    14   ar
    93    13    15   ar
    94    54    49   am
    95    47    48    1
    96    44    46   am
    97    44    45    2
    98    49    48    1
    99    49    50    2
   100    48    51    1
   101    56    57    2
   102    56    63   am
   103    15    16   ar
   104    14    16   ar
   105    51    52    1
   106    51    53    1
   107    63    64    1
   108    70    69   ar
   109    71    69   ar
   110    69    68    1
   111    64    65    1
   112    64    67    1
   113    65    66    2
   114    68    67    1
