@<TRIPOS>MOLECULE
tmp/1wurD00.pdb
 93 88 0 0 0
SMALL
GASTEIGER

@<TRIPOS>ATOM
      1  N         13.4600   33.0050   19.1220 N.3    54  GLY54      -0.1225
      2  CA        13.1680   34.3190   18.5720 C.3    54  GLY54       0.1811
      3  C         11.9380   35.0000   19.1430 C.2    54  GLY54       0.2280
      4  O         11.2160   35.6880   18.4210 O.2    54  GLY54      -0.2866
      5  N          9.1490   33.8500   19.8310 N.3    56  ALA56      -0.1245
      6  CA         7.9100   33.3700   19.2250 C.3    56  ALA56       0.1562
      7  C          7.0800   32.5220   20.1860 C.2    56  ALA56       0.2260
      8  O          6.7410   31.3710   19.8960 O.2    56  ALA56      -0.2867
      9  CB         8.2080   32.5980   17.9460 C.3    56  ALA56       0.0290
     10  N          3.5620   32.6390   22.1690 N.3    58  PHE58      -0.1241
     11  CA         2.2670   33.3140   22.1810 C.3    58  PHE58       0.1605
     12  C          1.3420   32.7730   23.2710 C.2    58  PHE58       0.2264
     13  O          1.5980   31.7140   23.8460 O.2    58  PHE58      -0.2867
     14  CB         1.5920   33.1520   20.8110 C.3    58  PHE58       0.0534
     15  CG         2.5100   33.3980   19.6470 C.ar   58  PHE58      -0.0203
     16  CD1        2.8210   34.6930   19.2480 C.ar   58  PHE58      -0.0042
     17  CD2        3.0800   32.3300   18.9590 C.ar   58  PHE58      -0.0042
     18  CE1        3.6890   34.9230   18.1810 C.ar   58  PHE58      -0.0003
     19  CE2        3.9480   32.5480   17.8920 C.ar   58  PHE58      -0.0003
     20  CZ         4.2540   33.8470   17.5030 C.ar   58  PHE58      -0.0000
     21  N         -0.9340   19.8970   21.9010 N.3    66  VAL66      -0.1245
     22  CA        -0.5500   20.2600   20.5470 C.3    66  VAL66       0.1561
     23  C          0.4900   19.2120   20.1660 C.2    66  VAL66       0.2260
     24  O          1.3840   18.9120   20.9570 O.2    66  VAL66      -0.2867
     25  CB         0.1060   21.6640   20.5050 C.3    66  VAL66       0.0252
     26  CG1        0.6320   21.9640   19.1020 C.3    66  VAL66       0.0019
     27  CG2       -0.8960   22.7320   20.9370 C.3    66  VAL66       0.0019
     28  N          2.7710   18.4920   23.5520 N.3    92  TYR92      -0.1241
     29  CA         2.7660   19.2560   24.7940 C.3    92  TYR92       0.1605
     30  C          1.4080   19.8530   25.1220 C.2    92  TYR92       0.2264
     31  O          0.5750   20.0790   24.2410 O.2    92  TYR92      -0.2867
     32  CB         3.8280   20.3690   24.7710 C.3    92  TYR92       0.0534
     33  CG         3.4220   21.6200   24.0260 C.ar   92  TYR92      -0.0201
     34  CD1        3.0040   22.7600   24.7170 C.ar   92  TYR92      -0.0009
     35  CD2        3.4830   21.6810   22.6370 C.ar   92  TYR92      -0.0009
     36  CE1        2.6620   23.9260   24.0420 C.ar   92  TYR92       0.0417
     37  CE2        3.1430   22.8420   21.9540 C.ar   92  TYR92       0.0417
     38  CZ         2.7370   23.9600   22.6630 C.ar   92  TYR92       0.1957
     39  OH         2.4320   25.1170   21.9920 O.3    92  TYR92      -0.2866
     40  N          2.1170   29.0130   24.2210 N.3    98  ILE98      -0.1231
     41  CA         2.2980   28.1100   23.0860 C.3    98  ILE98       0.1692
     42  C          3.4640   28.6330   22.2480 C.2    98  ILE98       0.2592
     43  O          3.6870   29.8440   22.1630 O.2    98  ILE98      -0.2718
     44  CB         1.0330   27.9910   22.1900 C.3    98  ILE98       0.0266
     45  CG1        0.6090   29.3610   21.6570 C.3    98  ILE98       0.0019
     46  CG2       -0.0920   27.3060   22.9490 C.3    98  ILE98       0.0020
     47  CD1       -0.5460   29.2990   20.6770 C.3    98  ILE98       0.0001
     48  N          4.2080   27.7150   21.6390 N.am   99  LEU99      -0.1966
     49  CA         5.3660   28.0700   20.8270 C.3    99  LEU99       0.1728
     50  C          5.0460   28.1580   19.3370 C.2    99  LEU99       0.2617
     51  O          4.1100   27.5180   18.8520 O.2    99  LEU99      -0.2715
     52  CB         6.4770   27.0350   21.0500 C.3    99  LEU99       0.0311
     53  CG         7.8470   27.2740   20.4090 C.3    99  LEU99       0.0022
     54  CD1        8.4860   28.5220   21.0080 C.3    99  LEU99       0.0001
     55  CD2        8.7430   26.0630   20.6310 C.3    99  LEU99       0.0001
     56  N          5.8070   28.9800   18.6190 N.am  100  GLY100     -0.1940
     57  CA         5.6170   29.0900   17.1840 C.3   100  GLY100      0.2014
     58  C          5.9880   27.7220   16.6380 C.2   100  GLY100      0.2639
     59  O          7.0160   27.1680   17.0270 O.2   100  GLY100     -0.2714
     60  N          5.1490   27.1620   15.7720 N.am  101  LEU101     -0.1963
     61  CA         5.3960   25.8260   15.2260 C.3   101  LEU101      0.1728
     62  C          6.8020   25.5790   14.6780 C.2   101  LEU101      0.2617
     63  O          7.4450   24.5900   15.0330 O.2   101  LEU101     -0.2715
     64  CB         4.3490   25.4770   14.1660 C.3   101  LEU101      0.0311
     65  CG         2.8980   25.4250   14.6460 C.3   101  LEU101      0.0022
     66  CD1        2.0060   25.0260   13.4970 C.3   101  LEU101      0.0001
     67  CD2        2.7400   24.4530   15.8050 C.3   101  LEU101      0.0001
     68  N          7.2940   26.4950   13.8520 N.am  102  SER102     -0.1936
     69  CA         8.6190   26.3450   13.2590 C.3   102  SER102      0.2055
     70  C          9.7440   26.3290   14.2900 C.2   102  SER102      0.2642
     71  O         10.8010   25.7460   14.0490 O.2   102  SER102     -0.2714
     72  CB         8.8760   27.4490   12.2340 C.3   102  SER102      0.2130
     73  OG         9.0150   28.7050   12.8720 O.3   102  SER102     -0.2179
     74  N          9.5140   26.9460   15.4470 N.am  103  LYS103     -0.1977
     75  CA        10.5390   26.9880   16.4850 C.3   103  LYS103      0.1596
     76  C         10.8550   25.6030   17.0390 C.2   103  LYS103      0.2287
     77  O         11.9460   25.3730   17.5530 O.2   103  LYS103     -0.2864
     78  CB        10.1550   27.9640   17.6030 C.3   103  LYS103      0.0298
     79  CG         9.8490   29.3720   17.1040 C.3   103  LYS103      0.0038
     80  CD        10.9630   29.9230   16.2140 C.3   103  LYS103      0.0206
     81  CE        10.5670   31.2680   15.6110 C.3   103  LYS103      0.1093
     82  NZ        11.6170   31.8530   14.7350 N.3   103  LYS103     -0.1314
     83  N         13.4840   24.3560   14.7900 N.3   106  ARG106     -0.1245
     84  CA        14.7390   25.0470   15.0670 C.3   106  ARG106      0.1563
     85  C         15.4080   24.4690   16.3150 C.2   106  ARG106      0.2260
     86  O         16.6340   24.3540   16.3660 O.2   106  ARG106     -0.2867
     87  CB        14.5140   26.5600   15.2030 C.3   106  ARG106      0.0307
     88  CG        14.0710   27.2190   13.9110 C.3   106  ARG106      0.0489
     89  CD        14.0820   28.7420   13.9880 C.3   106  ARG106      0.2205
     90  NE        13.6000   29.3560   12.7480 N.pl3 106  ARG106     -0.0865
     91  CZ        14.3310   29.5210   11.6480 C.cat 106  ARG106      0.5346
     92  NH1       15.5970   29.1210   11.6140 N.pl3 106  ARG106      0.1354
     93  NH2       13.7920   30.0810   10.5720 N.pl3 106  ARG106      0.1354
@<TRIPOS>BOND
     1    93    91    1
     2    92    91    1
     3    91    90    2
     4    72    73    1
     5    72    69    1
     6    90    89    1
     7    69    68    1
     8    69    70    1
     9    66    65    1
    10    68    62   am
    11    88    89    1
    12    88    87    1
    13    71    70    2
    14    64    65    1
    15    64    61    1
    16    70    74   am
    17    65    67    1
    18    62    63    2
    19    62    61    1
    20    82    81    1
    21    83    84    1
    22    84    87    1
    23    84    85    1
    24    61    60    1
    25    74    75    1
    26    81    80    1
    27    60    58   am
    28    80    79    1
    29    85    86    2
    30    75    76    1
    31    75    78    1
    32    58    59    2
    33    58    57    1
    34    76    77    2
    35    79    78    1
    36    57    56    1
    37    20    19   ar
    38    20    18   ar
    39    19    17   ar
    40     9     6    1
    41    18    16   ar
    42     4     3    2
    43     2     1    1
    44     2     3    1
    45    56    50   am
    46    51    50    2
    47    17    15   ar
    48    26    25    1
    49     6     5    1
    50     6     7    1
    51    16    15   ar
    52    50    49    1
    53    15    14    1
    54     8     7    2
    55    23    22    1
    56    23    24    2
    57    53    55    1
    58    53    54    1
    59    53    52    1
    60    25    22    1
    61    25    27    1
    62    22    21    1
    63    47    45    1
    64    14    11    1
    65    49    52    1
    66    49    48    1
    67    48    42   am
    68    45    44    1
    69    37    35   ar
    70    37    38   ar
    71    39    38    1
    72    43    42    2
    73    10    11    1
    74    11    12    1
    75    44    46    1
    76    44    41    1
    77    42    41    1
    78    35    33   ar
    79    38    36   ar
    80    41    40    1
    81    12    13    2
    82    28    29    1
    83    33    34   ar
    84    33    32    1
    85    36    34   ar
    86    31    30    2
    87    32    29    1
    88    29    30    1
