@<TRIPOS>MOLECULE
tmp/1wutA01.pdb
 96 92 0 0 0
SMALL
GASTEIGER

@<TRIPOS>ATOM
      1  N         18.8350    2.0730   46.7150 N.3    55  TRP55      -0.1227
      2  CA        20.1470    2.6550   46.9640 C.3    55  TRP55       0.1737
      3  C         20.9420    1.6750   47.8460 C.2    55  TRP55       0.2595
      4  O         22.0830    1.3180   47.5380 O.2    55  TRP55      -0.2718
      5  CB        19.9700    4.0090   47.6760 C.3    55  TRP55       0.0564
      6  CG        21.1160    4.9860   47.5120 C.ar   55  TRP55       0.0003
      7  CD1       22.2620    4.7990   46.7900 C.ar   55  TRP55       0.0946
      8  CD2       21.2420    6.2800   48.1250 C.ar   55  TRP55       0.0152
      9  NE1       23.0910    5.8880   46.9160 N.ar   55  TRP55      -0.2442
     10  CE2       22.4900    6.8130   47.7310 C.ar   55  TRP55       0.0810
     11  CE3       20.4160    7.0390   48.9730 C.ar   55  TRP55       0.0012
     12  CZ2       22.9390    8.0720   48.1490 C.ar   55  TRP55       0.0191
     13  CZ3       20.8680    8.2960   49.3930 C.ar   55  TRP55       0.0001
     14  CH2       22.1200    8.7940   48.9800 C.ar   55  TRP55       0.0015
     15  N         20.3170    1.2310   48.9310 N.am   56  ILE56      -0.1980
     16  CA        20.9410    0.3040   49.8750 C.3    56  ILE56       0.1595
     17  C         21.3630   -1.0220   49.2340 C.2    56  ILE56       0.2287
     18  O         22.4730   -1.5020   49.4560 O.2    56  ILE56      -0.2864
     19  CB        19.9900    0.0250   51.0710 C.3    56  ILE56       0.0276
     20  CG1       20.0660    1.1810   52.0670 C.3    56  ILE56       0.0022
     21  CG2       20.3580   -1.2710   51.7550 C.3    56  ILE56       0.0022
     22  CD1       18.9290    1.2050   53.0610 C.3    56  ILE56       0.0001
     23  N         24.3770   -0.6190   46.6150 N.3    59  GLN59      -0.1231
     24  CA        25.6620   -0.4860   47.2910 C.3    59  GLN59       0.1698
     25  C         26.0700   -1.8110   47.9130 C.2    59  GLN59       0.2592
     26  O         27.2300   -2.2000   47.8440 O.2    59  GLN59      -0.2718
     27  CB        25.5960    0.5980   48.3730 C.3    59  GLN59       0.0381
     28  CG        25.4940    2.0370   47.8250 C.3    59  GLN59       0.0905
     29  CD        26.3660    2.2990   46.5940 C.2    59  GLN59       0.2608
     30  OE1       27.5490    1.9650   46.5670 O.2    59  GLN59      -0.2717
     31  NE2       25.7790    2.9090   45.5770 N.am   59  GLN59      -0.0878
     32  N         25.1120   -2.5080   48.5120 N.am   60  GLN60      -0.1979
     33  CA        25.3820   -3.7950   49.1430 C.3    60  GLN60       0.1601
     34  C         25.8230   -4.7800   48.0770 C.2    60  GLN60       0.2287
     35  O         26.6510   -5.6630   48.3130 O.2    60  GLN60      -0.2864
     36  CB        24.1180   -4.2980   49.8540 C.3    60  GLN60       0.0394
     37  CG        23.4090   -5.4600   49.1820 C.3    60  GLN60       0.0908
     38  CD        22.7650   -6.4380   50.1530 C.2    60  GLN60       0.2608
     39  OE1       23.4180   -6.9300   51.0720 O.2    60  GLN60      -0.2717
     40  NE2       21.4770   -6.7400   49.9430 N.am   60  GLN60      -0.0878
     41  N         29.3860   -4.4430   47.0180 N.3    63  TYR63      -0.1227
     42  CA        30.2750   -4.9450   48.0440 C.3    63  TYR63       0.1736
     43  C         30.4270   -6.4450   47.9190 C.2    63  TYR63       0.2595
     44  O         31.5280   -6.9730   48.0470 O.2    63  TYR63      -0.2718
     45  CB        29.7400   -4.6360   49.4170 C.3    63  TYR63       0.0548
     46  CG        30.5740   -5.2490   50.5110 C.ar   63  TYR63      -0.0200
     47  CD1       31.7830   -4.6750   50.8950 C.ar   63  TYR63      -0.0009
     48  CD2       30.1530   -6.3970   51.1690 C.ar   63  TYR63      -0.0009
     49  CE1       32.5600   -5.2350   51.9040 C.ar   63  TYR63       0.0417
     50  CE2       30.9210   -6.9690   52.1800 C.ar   63  TYR63       0.0417
     51  CZ        32.1190   -6.3790   52.5490 C.ar   63  TYR63       0.1957
     52  OH        32.8670   -6.9260   53.5710 O.3    63  TYR63      -0.2866
     53  N         29.3190   -7.1300   47.6670 N.am   64  GLU64      -0.1979
     54  CA        29.3440   -8.5770   47.5460 C.3    64  GLU64       0.1602
     55  C         30.0490   -9.0580   46.2900 C.2    64  GLU64       0.2287
     56  O         30.9430   -9.8990   46.3570 O.2    64  GLU64      -0.2864
     57  CB        27.9220   -9.1370   47.5790 C.3    64  GLU64       0.0415
     58  CG        27.0870   -8.6560   48.7620 C.3    64  GLU64       0.1163
     59  CD        27.1340   -9.6080   49.9480 C.2    64  GLU64       0.3649
     60  OE1       26.1100  -10.2820   50.2120 O.co2  64  GLU64      -0.2457
     61  OE2       28.1950   -9.6770   50.6140 O.co2  64  GLU64      -0.2457
     62  N         22.3570   13.0820   51.9150 N.3   179  LYS179     -0.1245
     63  CA        22.4380   12.4150   53.2090 C.3   179  LYS179      0.1561
     64  C         23.8490   12.5750   53.7780 C.2   179  LYS179      0.2260
     65  O         24.8010   11.9830   53.2710 O.2   179  LYS179     -0.2867
     66  CB        22.1100   10.9280   53.0790 C.3   179  LYS179      0.0271
     67  CG        22.2780   10.1560   54.3710 C.3   179  LYS179      0.0035
     68  CD        21.1500   10.4660   55.3310 C.3   179  LYS179      0.0206
     69  CE        21.6970   10.8250   56.7030 C.3   179  LYS179      0.1093
     70  NZ        22.0980    9.6160   57.4510 N.3   179  LYS179     -0.1314
     71  N         27.1160   12.0270   55.8490 N.3   181  ARG181     -0.1245
     72  CA        27.7040   10.7710   56.3280 C.3   181  ARG181      0.1563
     73  C         28.9150   11.1040   57.1900 C.2   181  ARG181      0.2260
     74  O         30.0550   10.9960   56.7480 O.2   181  ARG181     -0.2867
     75  CB        28.1120    9.9020   55.1510 C.3   181  ARG181      0.0307
     76  CG        27.0970    9.9430   54.0360 C.3   181  ARG181      0.0489
     77  CD        26.6500    8.5680   53.6370 C.3   181  ARG181      0.2205
     78  NE        26.6760    7.6030   54.7250 N.pl3 181  ARG181     -0.0865
     79  CZ        26.7330    6.2920   54.5340 C.cat 181  ARG181      0.5346
     80  NH1       26.7620    5.8210   53.3010 N.pl3 181  ARG181      0.1354
     81  NH2       26.7530    5.4580   55.5640 N.pl3 181  ARG181      0.1354
     82  N         26.1370   12.2210   50.5880 N.3   215  ASP215     -0.1239
     83  CA        25.7680   11.3720   49.4570 C.3   215  ASP215      0.1674
     84  C         24.4240   11.6950   48.8380 C.2   215  ASP215      0.2266
     85  O         23.4320   11.8280   49.5370 O.2   215  ASP215     -0.2867
     86  CB        25.7390    9.9070   49.8810 C.3   215  ASP215      0.1410
     87  CG        27.1130    9.3340   50.1110 C.2   215  ASP215      0.3668
     88  OD1       27.1810    8.1860   50.5990 O.co2 215  ASP215     -0.2456
     89  OD2       28.1150   10.0150   49.8090 O.co2 215  ASP215     -0.2456
     90  N         25.9480    6.5310   43.6100 N.3   228  THR228     -0.1218
     91  CA        26.1560    7.6270   44.5310 C.3   228  THR228      0.1862
     92  C         27.0440    8.7530   44.0490 C.2   228  THR228      0.2287
     93  O         28.0610    8.5230   43.3880 O.2   228  THR228     -0.2866
     94  CB        26.7700    7.1010   45.8280 C.3   228  THR228      0.1770
     95  OG1       25.8740    6.1520   46.4190 O.3   228  THR228     -0.2211
     96  CG2       27.0340    8.2450   46.8070 C.3   228  THR228      0.0375
@<TRIPOS>BOND
     1    93    92    2
     2    90    91    1
     3    92    91    1
     4    91    94    1
     5    31    29   am
     6    94    95    1
     7    94    96    1
     8    55    56    2
     9    55    54    1
    10    30    29    2
    11    29    28    1
    12    23    24    1
    13     1     2    1
    14     7     9   ar
    15     7     6   ar
    16     9    10   ar
    17     2     5    1
    18     2     3    1
    19    41    42    1
    20    24    25    1
    21    24    27    1
    22     6     5    1
    23     6     8   ar
    24     4     3    2
    25    54    57    1
    26    54    53    1
    27    57    58    1
    28    53    43   am
    29    10     8   ar
    30    10    12   ar
    31    28    27    1
    32    26    25    2
    33     3    15   am
    34    25    32   am
    35    43    42    1
    36    43    44    2
    37    42    45    1
    38    34    35    2
    39    34    33    1
    40     8    11   ar
    41    12    14   ar
    42    32    33    1
    43    58    59    1
    44    84    83    1
    45    84    85    2
    46    15    16    1
    47    11    13   ar
    48    14    13   ar
    49    33    36    1
    50    37    36    1
    51    37    38    1
    52    17    18    2
    53    17    16    1
    54    45    46    1
    55    83    86    1
    56    83    82    1
    57    89    87   ar
    58    16    19    1
    59    86    87    1
    60    40    38   am
    61    59    60   ar
    62    59    61   ar
    63    87    88   ar
    64    38    39    2
    65    46    47   ar
    66    46    48   ar
    67    47    49   ar
    68    19    21    1
    69    19    20    1
    70    48    50   ar
    71    49    51   ar
    72    62    63    1
    73    20    22    1
    74    50    51   ar
    75    51    52    1
    76    66    63    1
    77    66    67    1
    78    63    64    1
    79    65    64    2
    80    80    79    1
    81    77    76    1
    82    77    78    1
    83    76    75    1
    84    67    68    1
    85    79    78    2
    86    79    81    1
    87    75    72    1
    88    68    69    1
    89    71    72    1
    90    72    73    1
    91    69    70    1
    92    74    73    2
