@<TRIPOS>MOLECULE
tmp/1wuuB01.pdb
 198 186 0 0 0
SMALL
GASTEIGER

@<TRIPOS>ATOM
      1  N         53.7980   62.7050   40.8130 N.3    36  ARG36      -0.1245
      2  CA        52.9970   62.7680   42.0270 C.3    36  ARG36       0.1563
      3  C         53.3600   63.7960   43.0760 C.2    36  ARG36       0.2260
      4  O         54.5300   64.0650   43.3810 O.2    36  ARG36      -0.2867
      5  CB        52.7770   61.4090   42.6910 C.3    36  ARG36       0.0307
      6  CG        54.0210   60.8070   43.3400 C.3    36  ARG36       0.0489
      7  CD        54.2710   61.2600   44.7830 C.3    36  ARG36       0.2205
      8  NE        55.6660   61.0360   45.1690 N.pl3  36  ARG36      -0.0865
      9  CZ        56.5420   62.0010   45.3980 C.cat  36  ARG36       0.5346
     10  NH1       56.2200   63.3070   45.3450 N.pl3  36  ARG36       0.1354
     11  NH2       57.7760   61.6300   45.7290 N.pl3  36  ARG36       0.1354
     12  N         54.6950   61.0080   32.3240 N.3    58  THR58      -0.1218
     13  CA        55.6740   60.6280   31.3700 C.3    58  THR58       0.1862
     14  C         55.0610   59.7950   30.2930 C.2    58  THR58       0.2287
     15  O         54.2000   58.9600   30.5370 O.2    58  THR58      -0.2866
     16  CB        56.8320   59.8900   32.0390 C.3    58  THR58       0.1770
     17  OG1       57.5250   60.7390   32.9350 O.3    58  THR58      -0.2211
     18  CG2       57.7650   59.3750   30.9720 C.3    58  THR58       0.0375
     19  N         65.9370   60.5430   25.4890 N.3    74  THR74      -0.1218
     20  CA        65.0420   61.3350   26.2800 C.3    74  THR74       0.1862
     21  C         64.9060   62.6930   25.7010 C.2    74  THR74       0.2287
     22  O         65.8690   63.2200   25.1690 O.2    74  THR74      -0.2866
     23  CB        65.5120   61.5300   27.7020 C.3    74  THR74       0.1770
     24  OG1       65.7270   60.2590   28.2600 O.3    74  THR74      -0.2211
     25  CG2       64.4000   62.2760   28.4380 C.3    74  THR74       0.0375
     26  N         63.9140   65.2620   27.7100 N.3    76  SER76      -0.1217
     27  CA        64.1480   66.2230   28.7600 C.3    76  SER76       0.1889
     28  C         65.5170   66.8030   28.8690 C.2    76  SER76       0.2288
     29  O         66.5000   66.0960   28.9570 O.2    76  SER76      -0.2866
     30  CB        63.5420   65.8750   30.0910 C.3    76  SER76       0.2089
     31  OG        62.5540   66.8510   30.4150 O.3    76  SER76      -0.2183
     32  N         66.5160   68.6490   31.3320 N.3    78  GLY78      -0.1210
     33  CA        67.0130   68.6360   32.6820 C.3    78  GLY78       0.1956
     34  C         67.7590   67.3440   32.9450 C.2    78  GLY78       0.2612
     35  O         68.1770   67.0430   34.0630 O.2    78  GLY78      -0.2717
     36  N         67.9010   66.5680   31.8930 N.am   79  ALA79      -0.1965
     37  CA        68.5360   65.2940   31.9750 C.3    79  ALA79       0.1728
     38  C         70.0440   65.2960   31.8100 C.2    79  ALA79       0.2616
     39  O         70.7320   66.2780   31.4670 O.2    79  ALA79      -0.2715
     40  CB        67.9030   64.3520   30.9630 C.3    79  ALA79       0.0334
     41  N         70.5060   64.0970   32.0510 N.am   80  ASP80      -0.1971
     42  CA        71.8600   63.6790   31.9390 C.3    80  ASP80       0.1709
     43  C         72.3380   63.6310   30.4760 C.2    80  ASP80       0.2293
     44  O         71.6400   63.1730   29.5550 O.2    80  ASP80      -0.2864
     45  CB        71.9490   62.2800   32.5570 C.3    80  ASP80       0.1436
     46  CG        73.1710   62.2460   33.3570 C.2    80  ASP80       0.3671
     47  OD1       73.6590   63.2910   33.7770 O.co2  80  ASP80      -0.2456
     48  OD2       73.6610   61.0410   33.4920 O.co2  80  ASP80      -0.2456
     49  N         73.2850   58.6570   34.0070 N.3   102  ARG102     -0.1231
     50  CA        72.5890   58.2240   35.2120 C.3   102  ARG102      0.1694
     51  C         71.0900   58.0830   34.9910 C.2   102  ARG102      0.2592
     52  O         70.3960   57.2660   35.6190 O.2   102  ARG102     -0.2718
     53  CB        72.8560   59.2050   36.3440 C.3   102  ARG102      0.0321
     54  CG        74.2730   59.7640   36.3150 C.3   102  ARG102      0.0489
     55  CD        74.6790   60.3760   37.6470 C.3   102  ARG102      0.2205
     56  NE        75.6260   61.4970   37.5380 N.pl3 102  ARG102     -0.0865
     57  CZ        75.5690   62.4970   36.6450 C.cat 102  ARG102      0.5346
     58  NH1       74.6430   62.5380   35.7230 N.pl3 102  ARG102      0.1354
     59  NH2       76.4960   63.4630   36.6610 N.pl3 102  ARG102      0.1354
     60  N         70.6020   58.8860   34.0660 N.am  103  TRP103     -0.1976
     61  CA        69.2070   58.8650   33.7660 C.3   103  TRP103      0.1640
     62  C         68.7600   57.5420   33.1850 C.2   103  TRP103      0.2290
     63  O         67.5820   57.1640   33.2890 O.2   103  TRP103     -0.2864
     64  CB        68.8350   60.0660   32.8840 C.3   103  TRP103      0.0576
     65  CG        69.2080   59.9230   31.4390 C.ar  103  TRP103      0.0006
     66  CD1       70.2430   60.5470   30.8060 C.ar  103  TRP103      0.0946
     67  CD2       68.5080   59.1700   30.4330 C.ar  103  TRP103      0.0152
     68  NE1       70.2480   60.2260   29.4680 N.ar  103  TRP103     -0.2442
     69  CE2       69.1930   59.3810   29.2110 C.ar  103  TRP103      0.0810
     70  CE3       67.3980   58.3240   30.4620 C.ar  103  TRP103      0.0012
     71  CZ2       68.7660   58.7820   28.0260 C.ar  103  TRP103      0.0191
     72  CZ3       67.0090   57.7040   29.3020 C.ar  103  TRP103      0.0001
     73  CH2       67.6650   57.9540   28.0910 C.ar  103  TRP103      0.0015
     74  N         67.7640   54.3090   35.5540 N.3   106  TYR106     -0.1241
     75  CA        66.4000   53.9790   35.8470 C.3   106  TYR106      0.1605
     76  C         65.8390   52.8710   34.9510 C.2   106  TYR106      0.2264
     77  O         65.2850   51.8560   35.4060 O.2   106  TYR106     -0.2867
     78  CB        65.5730   55.2500   35.7300 C.3   106  TYR106      0.0534
     79  CG        66.0000   56.1580   36.8160 C.ar  106  TYR106     -0.0201
     80  CD1       66.7340   57.3110   36.5460 C.ar  106  TYR106     -0.0009
     81  CD2       65.7420   55.8090   38.1420 C.ar  106  TYR106     -0.0009
     82  CE1       67.1540   58.1370   37.5890 C.ar  106  TYR106      0.0417
     83  CE2       66.1680   56.6150   39.2000 C.ar  106  TYR106      0.0417
     84  CZ        66.8780   57.7840   38.9160 C.ar  106  TYR106      0.1957
     85  OH        67.3100   58.5900   39.9530 O.3   106  TYR106     -0.2866
     86  N         61.2950   58.9440   25.2410 N.3   126  VAL126     -0.1231
     87  CA        60.8360   59.3320   26.5390 C.3   126  VAL126      0.1692
     88  C         60.4390   60.7810   26.5940 C.2   126  VAL126      0.2592
     89  O         61.2360   61.6760   26.2970 O.2   126  VAL126     -0.2718
     90  CB        61.9020   59.0620   27.5670 C.3   126  VAL126      0.0266
     91  CG1       61.5210   59.7580   28.8670 C.3   126  VAL126      0.0020
     92  CG2       62.0040   57.5600   27.7860 C.3   126  VAL126      0.0020
     93  N         59.2040   60.9990   27.0020 N.am  127  VAL127     -0.1966
     94  CA        58.7000   62.3370   27.1530 C.3   127  VAL127      0.1727
     95  C         58.0740   62.5080   28.5340 C.2   127  VAL127      0.2616
     96  O         57.5880   61.5230   29.1010 O.2   127  VAL127     -0.2715
     97  CB        57.7780   62.7230   26.0120 C.3   127  VAL127      0.0290
     98  CG1       56.8020   63.8130   26.4380 C.3   127  VAL127      0.0023
     99  CG2       58.6480   63.2520   24.8850 C.3   127  VAL127      0.0023
    100  N         58.1330   63.7500   29.0890 N.am  128  SER128     -0.1950
    101  CA        57.6230   64.0700   30.4310 C.3   128  SER128      0.1924
    102  C         57.3250   65.5560   30.7050 C.2   128  SER128      0.2314
    103  O         58.1000   66.4600   30.3470 O.2   128  SER128     -0.2863
    104  CB        58.5540   63.5410   31.5150 C.3   128  SER128      0.2116
    105  OG        57.8860   63.4080   32.7580 O.3   128  SER128     -0.2180
    106  N         58.8310   67.7430   36.2900 N.3   131  PRO131     -0.2102
    107  CA        60.1430   68.2820   36.5920 C.3   131  PRO131      0.1504
    108  C         61.1370   67.2650   37.1440 C.2   131  PRO131      0.2576
    109  O         60.8960   66.6700   38.1870 O.2   131  PRO131     -0.2718
    110  CB        59.8810   69.3710   37.6470 C.3   131  PRO131      0.0282
    111  CG        58.3980   69.7250   37.5880 C.3   131  PRO131      0.0208
    112  CD        57.7360   68.6610   36.7380 C.3   131  PRO131      0.0893
    113  N         62.2750   67.0900   36.4670 N.am  132  LEU132     -0.1966
    114  CA        63.2930   66.1590   36.9770 C.3   132  LEU132      0.1728
    115  C         63.7990   66.6850   38.2870 C.2   132  LEU132      0.2617
    116  O         64.3280   67.7720   38.3280 O.2   132  LEU132     -0.2715
    117  CB        64.4690   65.9560   36.0050 C.3   132  LEU132      0.0311
    118  CG        63.9880   65.7100   34.5860 C.3   132  LEU132      0.0022
    119  CD1       65.1610   65.3290   33.7060 C.3   132  LEU132      0.0001
    120  CD2       62.9780   64.5820   34.5660 C.3   132  LEU132      0.0001
    121  N         63.5780   65.9640   39.3700 N.am  133  GLY133     -0.1940
    122  CA        64.0120   66.4730   40.6470 C.3   133  GLY133      0.2014
    123  C         63.1370   67.6170   41.1830 C.2   133  GLY133      0.2639
    124  O         63.6310   68.5280   41.8520 O.2   133  GLY133     -0.2714
    125  N         61.8220   67.5430   40.9410 N.am  134  GLY134     -0.1939
    126  CA        60.9050   68.5750   41.4120 C.3   134  GLY134      0.2014
    127  C         60.1450   68.1400   42.6550 C.2   134  GLY134      0.2639
    128  O         59.3070   68.8570   43.2210 O.2   134  GLY134     -0.2714
    129  N         60.4250   66.9380   43.0840 N.am  135  GLY135     -0.1954
    130  CA        59.7360   66.4820   44.2600 C.3   135  GLY135      0.1869
    131  C         58.3860   65.9620   43.8980 C.2   135  GLY135      0.2309
    132  O         57.5690   65.7380   44.7610 O.2   135  GLY135     -0.2863
    133  N         58.2140   63.2430   41.7900 N.3   137  SER137     -0.1202
    134  CA        58.5180   61.8860   41.3570 C.3   137  SER137      0.2020
    135  C         58.7740   61.6770   39.8910 C.2   137  SER137      0.2619
    136  O         58.1740   60.8070   39.2850 O.2   137  SER137     -0.2717
    137  CB        57.5630   60.8320   41.8780 C.3   137  SER137      0.2103
    138  OG        58.3240   59.6940   42.2340 O.3   137  SER137     -0.2182
    139  N         59.7080   62.4160   39.3240 N.am  138  SER138     -0.1937
    140  CA        59.9910   62.2050   37.9310 C.3   138  SER138      0.2055
    141  C         60.6510   60.8570   37.7690 C.2   138  SER138      0.2643
    142  O         60.7870   60.3300   36.6870 O.2   138  SER138     -0.2714
    143  CB        60.8590   63.3100   37.4010 C.3   138  SER138      0.2130
    144  OG        61.8770   63.5630   38.3350 O.3   138  SER138     -0.2179
    145  N         61.0330   60.2970   38.8850 N.am  139  SER139     -0.1949
    146  CA        61.7190   59.0220   38.9290 C.3   139  SER139      0.1924
    147  C         60.7510   57.8730   38.8970 C.2   139  SER139      0.2314
    148  O         60.9420   56.9260   38.1680 O.2   139  SER139     -0.2863
    149  CB        62.6460   58.9140   40.1450 C.3   139  SER139      0.2116
    150  OG        61.9030   59.0050   41.3570 O.3   139  SER139     -0.2180
    151  N         58.8390   57.6930   35.5760 N.3   142  LEU142     -0.1245
    152  CA        59.6540   57.0730   34.5380 C.3   142  LEU142      0.1561
    153  C         59.6410   55.5580   34.6860 C.2   142  LEU142      0.2260
    154  O         59.0080   54.8290   33.9150 O.2   142  LEU142     -0.2867
    155  CB        61.1130   57.6050   34.5970 C.3   142  LEU142      0.0270
    156  CG        62.1200   56.9580   33.6400 C.3   142  LEU142      0.0019
    157  CD1       61.8360   57.3660   32.1810 C.3   142  LEU142      0.0001
    158  CD2       63.5350   57.3860   34.0430 C.3   142  LEU142      0.0001
    159  N         65.3880   51.5200   41.1790 N.3   171  GLU171     -0.1245
    160  CA        65.8450   52.7810   41.7650 C.3   171  GLU171      0.1567
    161  C         66.8750   52.5180   42.8420 C.2   171  GLU171      0.2260
    162  O         67.8670   53.2480   43.0100 O.2   171  GLU171     -0.2867
    163  CB        64.6720   53.5160   42.4180 C.3   171  GLU171      0.0388
    164  CG        64.9870   54.9900   42.7230 C.3   171  GLU171      0.1160
    165  CD        63.7320   55.8000   42.8980 C.2   171  GLU171      0.3649
    166  OE1       62.6520   55.4720   42.4180 O.co2 171  GLU171     -0.2457
    167  OE2       63.9200   56.8740   43.6250 O.co2 171  GLU171     -0.2457
    168  N         55.9070   56.4590   45.9360 N.3   181  ASP181     -0.1239
    169  CA        56.0530   56.9160   44.5810 C.3   181  ASP181      0.1674
    170  C         55.4370   55.9990   43.5320 C.2   181  ASP181      0.2266
    171  O         54.4660   56.3550   42.8370 O.2   181  ASP181     -0.2867
    172  CB        57.5240   57.2320   44.2930 C.3   181  ASP181      0.1410
    173  CG        58.0130   58.3880   45.1130 C.2   181  ASP181      0.3668
    174  OD1       57.2880   59.0590   45.8460 O.co2 181  ASP181     -0.2456
    175  OD2       59.2950   58.6000   44.9430 O.co2 181  ASP181     -0.2456
    176  N         67.5640   73.1040   43.1580 N.3   222  ARG222     -0.1245
    177  CA        68.1010   71.7640   43.3790 C.3   222  ARG222      0.1563
    178  C         69.4810   71.8860   44.0400 C.2   222  ARG222      0.2260
    179  O         70.4320   72.3320   43.3920 O.2   222  ARG222     -0.2867
    180  CB        68.2750   71.0780   42.0170 C.3   222  ARG222      0.0307
    181  CG        67.2380   70.0080   41.6700 C.3   222  ARG222      0.0489
    182  CD        67.4240   69.4060   40.2670 C.3   222  ARG222      0.2205
    183  NE        67.7980   67.9760   40.2730 N.pl3 222  ARG222     -0.0865
    184  CZ        67.7810   67.1230   39.2140 C.cat 222  ARG222      0.5346
    185  NH1       67.4160   67.4830   37.9610 N.pl3 222  ARG222      0.1354
    186  NH2       68.1590   65.8550   39.4190 N.pl3 222  ARG222      0.1354
    187  N         70.7750   68.1090   44.5770 N.3   224  LEU224     -0.1245
    188  CA        70.4620   66.9350   45.3860 C.3   224  LEU224      0.1561
    189  C         71.4330   66.7420   46.5390 C.2   224  LEU224      0.2260
    190  O         72.6290   66.4990   46.3180 O.2   224  LEU224     -0.2867
    191  CB        70.4780   65.6480   44.5260 C.3   224  LEU224      0.0270
    192  CG        69.3310   65.5420   43.5260 C.3   224  LEU224      0.0019
    193  CD1       69.7440   64.5970   42.4020 C.3   224  LEU224      0.0001
    194  CD2       68.0700   65.0100   44.2170 C.3   224  LEU224      0.0001
    195  N         61.1350   64.4900   48.4040 N.3   337  GLY337     -0.1225
    196  CA        62.2770   64.2200   49.2790 C.3   337  GLY337      0.1811
    197  C         62.8160   65.4030   50.0990 C.2   337  GLY337      0.2280
    198  O         63.4330   65.1900   51.1350 O.2   337  GLY337     -0.2866
@<TRIPOS>BOND
     1    99    97    1
     2    22    21    2
     3    86    87    1
     4    19    20    1
     5    21    20    1
     6    97    98    1
     7    97    94    1
     8    20    23    1
     9    89    88    2
    10    87    88    1
    11    87    90    1
    12    88    93   am
    13    93    94    1
    14    94    95    1
    15    90    92    1
    16    90    91    1
    17    23    24    1
    18    23    25    1
    19    26    27    1
    20    71    73   ar
    21    71    69   ar
    22    73    72   ar
    23    95   100   am
    24    95    96    2
    25    27    28    1
    26    27    30    1
    27    28    29    2
    28   100   101    1
    29    69    68   ar
    30    69    67   ar
    31    72    70   ar
    32    68    66   ar
    33    44    43    2
    34    30    31    1
    35    14    15    2
    36    14    13    1
    37   103   102    2
    38   101   102    1
    39   101   104    1
    40    67    70   ar
    41    67    65   ar
    42    43    42    1
    43    66    65   ar
    44    40    37    1
    45    18    16    1
    46    32    33    1
    47    13    16    1
    48    13    12    1
    49    65    64    1
    50    39    38    2
    51   104   105    1
    52    38    37    1
    53    38    41   am
    54    36    37    1
    55    36    34   am
    56    42    41    1
    57    42    45    1
    58    16    17    1
    59   157   156    1
    60    45    46    1
    61    33    34    1
    62    64    61    1
    63    34    35    2
    64    62    63    2
    65    62    61    1
    66    46    48   ar
    67    46    47   ar
    68   156   158    1
    69   156   155    1
    70   119   118    1
    71    61    60    1
    72   154   153    2
    73    49    50    1
    74    60    51   am
    75   152   155    1
    76   152   153    1
    77   152   151    1
    78   120   118    1
    79   118   117    1
    80    76    77    2
    81    76    75    1
    82    51    50    1
    83    51    52    2
    84    50    53    1
    85    74    75    1
    86    58    57    1
    87    78    75    1
    88    78    79    1
    89   117   114    1
    90   106   107    1
    91   106   112    1
    92    54    53    1
    93    54    55    1
    94   113   114    1
    95   113   108   am
    96    80    79   ar
    97    80    82   ar
    98   107   108    1
    99   107   110    1
   100    57    59    1
   101    57    56    2
   102   142   141    2
   103   112   111    1
   104    79    81   ar
   105   114   115    1
   106   108   109    2
   107   143   140    1
   108   143   144    1
   109    56    55    1
   110   111   110    1
   111    82    84   ar
   112   141   140    1
   113   141   145   am
   114   140   139    1
   115   185   184    1
   116    81    83   ar
   117   148   147    2
   118   115   116    2
   119   115   121   am
   120   145   146    1
   121   147   146    1
   122    84    83   ar
   123    84    85    1
   124   146   149    1
   125   184   186    1
   126   184   183    2
   127   136   135    2
   128   139   135   am
   129   121   122    1
   130   135   134    1
   131   149   150    1
   132   182   183    1
   133   182   181    1
   134   122   123    1
   135     1     2    1
   136   125   123   am
   137   125   126    1
   138   159   160    1
   139   123   124    2
   140   134   133    1
   141   134   137    1
   142   126   127    1
   143   181   180    1
   144   160   163    1
   145   160   161    1
   146   137   138    1
   147   180   177    1
   148     2     5    1
   149     2     3    1
   150   193   192    1
   151   166   165   ar
   152   163   164    1
   153   127   129   am
   154   127   128    2
   155     5     6    1
   156   164   165    1
   157   171   170    2
   158   161   162    2
   159   165   167   ar
   160     3     4    2
   161   129   130    1
   162   176   177    1
   163     6     7    1
   164   177   178    1
   165   179   178    2
   166   192   194    1
   167   192   191    1
   168   170   169    1
   169   131   130    1
   170   131   132    2
   171   172   169    1
   172   172   173    1
   173   191   188    1
   174   187   188    1
   175   169   168    1
   176     7     8    1
   177   175   173   ar
   178   173   174   ar
   179     8     9    2
   180    10     9    1
   181   188   189    1
   182     9    11    1
   183   190   189    2
   184   195   196    1
   185   196   197    1
   186   197   198    2
