@<TRIPOS>MOLECULE
tmp/1wv0A01.pdb
 107 102 0 0 0
SMALL
GASTEIGER

@<TRIPOS>ATOM
      1  N         11.6650   10.3040   47.4180 N.3    48  ARG48      -0.1245
      2  CA        12.9710    9.8780   47.8820 C.3    48  ARG48       0.1563
      3  C         12.8730    8.5410   48.6170 C.2    48  ARG48       0.2260
      4  O         13.7900    7.7200   48.5630 O.2    48  ARG48      -0.2867
      5  CB        13.5540   10.9480   48.7930 C.3    48  ARG48       0.0307
      6  CG        14.7660   10.5120   49.5700 C.3    48  ARG48       0.0489
      7  CD        14.9720   11.4420   50.7450 C.3    48  ARG48       0.2205
      8  NE        16.1400   11.0600   51.5250 N.pl3  48  ARG48      -0.0865
      9  CZ        16.0910   10.3290   52.6310 C.cat  48  ARG48       0.5346
     10  NH1       17.2130   10.0280   53.2770 N.pl3  48  ARG48       0.1354
     11  NH2       14.9190    9.9060   53.0900 N.pl3  48  ARG48       0.1354
     12  N         18.8230    2.0190   46.6840 N.3    55  TRP55      -0.1227
     13  CA        20.1400    2.5920   46.9400 C.3    55  TRP55       0.1737
     14  C         20.9630    1.6390   47.8220 C.2    55  TRP55       0.2595
     15  O         22.1240    1.3400   47.5220 O.2    55  TRP55      -0.2718
     16  CB        19.9640    3.9580   47.6180 C.3    55  TRP55       0.0564
     17  CG        21.1410    4.8880   47.5210 C.ar   55  TRP55       0.0003
     18  CD1       22.3120    4.6730   46.8510 C.ar   55  TRP55       0.0946
     19  CD2       21.2670    6.1720   48.1490 C.ar   55  TRP55       0.0152
     20  NE1       23.1650    5.7440   47.0250 N.ar   55  TRP55      -0.2442
     21  CE2       22.5490    6.6770   47.8190 C.ar   55  TRP55       0.0810
     22  CE3       20.4220    6.9470   48.9660 C.ar   55  TRP55       0.0012
     23  CZ2       23.0080    7.9150   48.2690 C.ar   55  TRP55       0.0191
     24  CZ3       20.8780    8.1830   49.4170 C.ar   55  TRP55       0.0001
     25  CH2       22.1640    8.6530   49.0660 C.ar   55  TRP55       0.0015
     26  N         20.3420    1.1510   48.8960 N.am   56  ILE56      -0.1980
     27  CA        20.9870    0.2380   49.8430 C.3    56  ILE56       0.1595
     28  C         21.4110   -1.0900   49.2160 C.2    56  ILE56       0.2287
     29  O         22.5260   -1.5630   49.4420 O.2    56  ILE56      -0.2864
     30  CB        20.0520   -0.0590   51.0640 C.3    56  ILE56       0.0276
     31  CG1       20.0670    1.1280   52.0230 C.3    56  ILE56       0.0022
     32  CG2       20.4960   -1.3180   51.7940 C.3    56  ILE56       0.0022
     33  CD1       18.8390    1.1860   52.9020 C.3    56  ILE56       0.0001
     34  N         24.4020   -0.5660   46.6570 N.3    59  GLN59      -0.1231
     35  CA        25.6810   -0.4350   47.3460 C.3    59  GLN59       0.1698
     36  C         26.1030   -1.7410   48.0010 C.2    59  GLN59       0.2592
     37  O         27.2920   -2.0650   48.0450 O.2    59  GLN59      -0.2718
     38  CB        25.6060    0.6690   48.3960 C.3    59  GLN59       0.0381
     39  CG        25.4610    2.0650   47.8000 C.3    59  GLN59       0.0905
     40  CD        26.3320    2.2940   46.5600 C.2    59  GLN59       0.2608
     41  OE1       27.5240    1.9730   46.5450 O.2    59  GLN59      -0.2717
     42  NE2       25.7330    2.8580   45.5210 N.am   59  GLN59      -0.0878
     43  N         25.1300   -2.4900   48.5110 N.am   60  GLN60      -0.1979
     44  CA        25.4210   -3.7700   49.1430 C.3    60  GLN60       0.1601
     45  C         25.8380   -4.7550   48.0580 C.2    60  GLN60       0.2287
     46  O         26.7120   -5.5950   48.2720 O.2    60  GLN60      -0.2864
     47  CB        24.1920   -4.2680   49.9080 C.3    60  GLN60       0.0394
     48  CG        23.4050   -5.3550   49.2100 C.3    60  GLN60       0.0908
     49  CD        22.7650   -6.3110   50.1950 C.2    60  GLN60       0.2608
     50  OE1       23.4200   -6.7910   51.1200 O.2    60  GLN60      -0.2717
     51  NE2       21.4800   -6.5860   50.0050 N.am   60  GLN60      -0.0878
     52  N         29.4160   -4.4650   47.0380 N.3    63  TYR63      -0.1227
     53  CA        30.3090   -4.9720   48.0620 C.3    63  TYR63       0.1736
     54  C         30.4550   -6.4840   47.9340 C.2    63  TYR63       0.2595
     55  O         31.5590   -7.0160   48.0410 O.2    63  TYR63      -0.2718
     56  CB        29.7770   -4.6090   49.4500 C.3    63  TYR63       0.0548
     57  CG        30.5830   -5.2140   50.5690 C.ar   63  TYR63      -0.0200
     58  CD1       31.8220   -4.6860   50.9250 C.ar   63  TYR63      -0.0009
     59  CD2       30.1210   -6.3330   51.2570 C.ar   63  TYR63      -0.0009
     60  CE1       32.5870   -5.2600   51.9410 C.ar   63  TYR63       0.0417
     61  CE2       30.8750   -6.9150   52.2740 C.ar   63  TYR63       0.0417
     62  CZ        32.1070   -6.3740   52.6100 C.ar   63  TYR63       0.1957
     63  OH        32.8560   -6.9440   53.6150 O.3    63  TYR63      -0.2866
     64  N         29.3390   -7.1680   47.7010 N.am   64  GLU64      -0.1979
     65  CA        29.3430   -8.6160   47.5610 C.3    64  GLU64       0.1602
     66  C         30.0340   -9.0680   46.2830 C.2    64  GLU64       0.2287
     67  O         30.9100   -9.9340   46.3240 O.2    64  GLU64      -0.2864
     68  CB        27.9170   -9.1590   47.5710 C.3    64  GLU64       0.0415
     69  CG        27.0750   -8.6610   48.7290 C.3    64  GLU64       0.1163
     70  CD        27.0900   -9.6100   49.9170 C.2    64  GLU64       0.3649
     71  OE1       26.0370  -10.2280   50.1920 O.co2  64  GLU64      -0.2457
     72  OE2       28.1490   -9.7350   50.5750 O.co2  64  GLU64      -0.2457
     73  N         22.4150   13.3980   52.0360 N.3   179  LYS179     -0.1245
     74  CA        22.4720   12.8240   53.3690 C.3   179  LYS179      0.1561
     75  C         23.9120   12.8630   53.8540 C.2   179  LYS179      0.2260
     76  O         24.7970   12.2500   53.2640 O.2   179  LYS179     -0.2867
     77  CB        21.9790   11.3810   53.3780 C.3   179  LYS179      0.0271
     78  CG        22.2870   10.6560   54.6880 C.3   179  LYS179      0.0035
     79  CD        21.0840   10.6320   55.6100 C.3   179  LYS179      0.0206
     80  CE        21.5160   10.8760   57.0480 C.3   179  LYS179      0.1093
     81  NZ        22.2240    9.6910   57.6270 N.3   179  LYS179     -0.1314
     82  N         27.2010   12.0340   55.8830 N.3   181  ARG181     -0.1245
     83  CA        27.7460   10.7710   56.3920 C.3   181  ARG181      0.1563
     84  C         28.9780   11.1600   57.2010 C.2   181  ARG181      0.2260
     85  O         30.1080   11.0760   56.7230 O.2   181  ARG181     -0.2867
     86  CB        28.1150    9.8390   55.2400 C.3   181  ARG181      0.0307
     87  CG        27.1460    9.9380   54.0730 C.3   181  ARG181      0.0489
     88  CD        26.5150    8.6080   53.6950 C.3   181  ARG181      0.2205
     89  NE        26.5890    7.5840   54.7310 N.pl3 181  ARG181     -0.0865
     90  CZ        26.8410    6.3020   54.4770 C.cat 181  ARG181      0.5346
     91  NH1       27.0410    5.9020   53.2250 N.pl3 181  ARG181      0.1354
     92  NH2       26.8780    5.4110   55.4620 N.pl3 181  ARG181      0.1354
     93  N         26.1490   12.2140   50.6870 N.3   215  ASP215     -0.1239
     94  CA        25.7640   11.3630   49.5670 C.3   215  ASP215      0.1674
     95  C         24.4000   11.7250   49.0090 C.2   215  ASP215      0.2266
     96  O         23.4490   11.9410   49.7590 O.2   215  ASP215     -0.2867
     97  CB        25.7270    9.9020   49.9920 C.3   215  ASP215      0.1410
     98  CG        27.1040    9.3290   50.2480 C.2   215  ASP215      0.3668
     99  OD1       27.1740    8.1440   50.6460 O.co2 215  ASP215     -0.2456
    100  OD2       28.1030   10.0540   50.0520 O.co2 215  ASP215     -0.2456
    101  N         25.9790    6.5060   43.6580 N.3   228  THR228     -0.1218
    102  CA        26.1670    7.6030   44.5880 C.3   228  THR228      0.1862
    103  C         27.0770    8.7330   44.1450 C.2   228  THR228      0.2287
    104  O         28.1490    8.4990   43.5760 O.2   228  THR228     -0.2866
    105  CB        26.7410    7.0670   45.9160 C.3   228  THR228      0.1770
    106  OG1       25.7950    6.1700   46.5090 O.3   228  THR228     -0.2211
    107  CG2       27.0480    8.2070   46.8750 C.3   228  THR228      0.0375
@<TRIPOS>BOND
     1   104   103    2
     2   101   102    1
     3   103   102    1
     4   102   105    1
     5    42    40   am
     6   105   106    1
     7   105   107    1
     8    66    67    2
     9    66    65    1
    10    41    40    2
    11    40    39    1
    12    34    35    1
    13    12    13    1
    14    18    20   ar
    15    18    17   ar
    16    13    16    1
    17    13    14    1
    18    20    21   ar
    19    52    53    1
    20    35    36    1
    21    35    38    1
    22     1     2    1
    23    17    16    1
    24    17    19   ar
    25    15    14    2
    26    65    68    1
    27    65    64    1
    28    68    69    1
    29    64    54   am
    30    39    38    1
    31    21    19   ar
    32    21    23   ar
    33    14    26   am
    34     2     3    1
    35     2     5    1
    36    54    55    2
    37    54    53    1
    38    36    37    2
    39    36    43   am
    40    45    46    2
    41    45    44    1
    42    53    56    1
    43    19    22   ar
    44    23    25   ar
    45    43    44    1
    46     4     3    2
    47    69    70    1
    48     5     6    1
    49    26    27    1
    50    22    24   ar
    51    95    94    1
    52    95    96    2
    53    25    24   ar
    54    44    47    1
    55    48    47    1
    56    48    49    1
    57    28    29    2
    58    28    27    1
    59    56    57    1
    60    94    97    1
    61    94    93    1
    62     6     7    1
    63    27    30    1
    64    70    71   ar
    65    70    72   ar
    66    97    98    1
    67    51    49   am
    68   100    98   ar
    69    49    50    2
    70    98    99   ar
    71    57    58   ar
    72    57    59   ar
    73     7     8    1
    74    58    60   ar
    75    30    32    1
    76    30    31    1
    77    59    61   ar
    78     8     9    2
    79    60    62   ar
    80    31    33    1
    81    73    74    1
    82    61    62   ar
    83    62    63    1
    84     9    11    1
    85     9    10    1
    86    91    90    1
    87    76    75    2
    88    74    77    1
    89    74    75    1
    90    77    78    1
    91    88    87    1
    92    88    89    1
    93    87    86    1
    94    90    89    2
    95    90    92    1
    96    78    79    1
    97    86    83    1
    98    79    80    1
    99    82    83    1
   100    83    84    1
   101    85    84    2
   102    80    81    1
