@<TRIPOS>MOLECULE
tmp/1wv1A01.pdb
 107 102 0 0 0
SMALL
GASTEIGER

@<TRIPOS>ATOM
      1  N         11.6820   10.2830   47.3460 N.3    48  ARG48      -0.1245
      2  CA        12.9970    9.8430   47.7900 C.3    48  ARG48       0.1563
      3  C         12.8830    8.5200   48.5360 C.2    48  ARG48       0.2260
      4  O         13.7800    7.6830   48.4800 O.2    48  ARG48      -0.2867
      5  CB        13.6220   10.9050   48.6850 C.3    48  ARG48       0.0307
      6  CG        14.7430   10.3980   49.5700 C.3    48  ARG48       0.0489
      7  CD        14.8870   11.3180   50.7750 C.3    48  ARG48       0.2205
      8  NE        16.0880   11.0260   51.5420 N.pl3  48  ARG48      -0.0865
      9  CZ        16.0930   10.3070   52.6590 C.cat  48  ARG48       0.5346
     10  NH1       17.2360   10.0820   53.3030 N.pl3  48  ARG48       0.1354
     11  NH2       14.9530    9.8130   53.1320 N.pl3  48  ARG48       0.1354
     12  N         18.7740    1.9940   46.6620 N.3    55  TRP55      -0.1227
     13  CA        20.0820    2.5830   46.9090 C.3    55  TRP55       0.1737
     14  C         20.9110    1.6210   47.7740 C.2    55  TRP55       0.2595
     15  O         22.0730    1.3300   47.4740 O.2    55  TRP55      -0.2718
     16  CB        19.9140    3.9390   47.6170 C.3    55  TRP55       0.0564
     17  CG        21.1090    4.8650   47.5080 C.ar   55  TRP55       0.0003
     18  CD1       22.2830    4.6270   46.8370 C.ar   55  TRP55       0.0946
     19  CD2       21.2440    6.1750   48.0940 C.ar   55  TRP55       0.0152
     20  NE1       23.1390    5.7020   46.9720 N.ar   55  TRP55      -0.2442
     21  CE2       22.5290    6.6630   47.7340 C.ar   55  TRP55       0.0810
     22  CE3       20.4100    6.9780   48.8860 C.ar   55  TRP55       0.0012
     23  CZ2       22.9940    7.9230   48.1440 C.ar   55  TRP55       0.0191
     24  CZ3       20.8760    8.2280   49.2910 C.ar   55  TRP55       0.0001
     25  CH2       22.1580    8.6860   48.9150 C.ar   55  TRP55       0.0015
     26  N         20.2930    1.1210   48.8410 N.am   56  ILE56      -0.1980
     27  CA        20.9430    0.2120   49.7850 C.3    56  ILE56       0.1595
     28  C         21.3760   -1.1170   49.1550 C.2    56  ILE56       0.2287
     29  O         22.4770   -1.6120   49.3990 O.2    56  ILE56      -0.2864
     30  CB        20.0040   -0.0970   50.9960 C.3    56  ILE56       0.0276
     31  CG1       20.0390    1.0560   52.0020 C.3    56  ILE56       0.0022
     32  CG2       20.4240   -1.4000   51.6620 C.3    56  ILE56       0.0022
     33  CD1       18.8420    1.0900   52.9320 C.3    56  ILE56       0.0001
     34  N         24.3440   -0.6150   46.5170 N.3    59  GLN59      -0.1231
     35  CA        25.6280   -0.4920   47.2090 C.3    59  GLN59       0.1698
     36  C         26.0540   -1.8010   47.8560 C.2    59  GLN59       0.2592
     37  O         27.2200   -2.1690   47.7930 O.2    59  GLN59      -0.2718
     38  CB        25.5670    0.6070   48.2690 C.3    59  GLN59       0.0381
     39  CG        25.4450    2.0210   47.6920 C.3    59  GLN59       0.0905
     40  CD        26.3000    2.2620   46.4400 C.2    59  GLN59       0.2608
     41  OE1       27.4990    1.9760   46.4110 O.2    59  GLN59      -0.2717
     42  NE2       25.6770    2.8030   45.4080 N.am   59  GLN59      -0.0878
     43  N         25.1170   -2.5020   48.4840 N.am   60  GLN60      -0.1979
     44  CA        25.4330   -3.7780   49.1060 C.3    60  GLN60       0.1601
     45  C         25.8380   -4.7680   48.0160 C.2    60  GLN60       0.2287
     46  O         26.7140   -5.6090   48.2150 O.2    60  GLN60      -0.2864
     47  CB        24.2250   -4.2890   49.9010 C.3    60  GLN60       0.0394
     48  CG        23.4180   -5.3730   49.2190 C.3    60  GLN60       0.0908
     49  CD        22.7750   -6.3230   50.2050 C.2    60  GLN60       0.2608
     50  OE1       23.4290   -6.8220   51.1160 O.2    60  GLN60      -0.2717
     51  NE2       21.4870   -6.5820   50.0240 N.am   60  GLN60      -0.0878
     52  N         29.3910   -4.4720   46.9860 N.3    63  TYR63      -0.1227
     53  CA        30.3010   -4.9570   48.0040 C.3    63  TYR63       0.1736
     54  C         30.4420   -6.4610   47.8360 C.2    63  TYR63       0.2595
     55  O         31.5460   -7.0020   47.8900 O.2    63  TYR63      -0.2718
     56  CB        29.7730   -4.6350   49.4020 C.3    63  TYR63       0.0548
     57  CG        30.5920   -5.2710   50.4950 C.ar   63  TYR63      -0.0200
     58  CD1       31.8170   -4.7270   50.8770 C.ar   63  TYR63      -0.0009
     59  CD2       30.1550   -6.4320   51.1380 C.ar   63  TYR63      -0.0009
     60  CE1       32.5960   -5.3240   51.8770 C.ar   63  TYR63       0.0417
     61  CE2       30.9180   -7.0370   52.1360 C.ar   63  TYR63       0.0417
     62  CZ        32.1370   -6.4780   52.5010 C.ar   63  TYR63       0.1957
     63  OH        32.8890   -7.0720   53.4900 O.3    63  TYR63      -0.2866
     64  N         29.3150   -7.1280   47.6080 N.am   64  GLU64      -0.1979
     65  CA        29.3090   -8.5700   47.4450 C.3    64  GLU64       0.1602
     66  C         29.9920   -9.0310   46.1670 C.2    64  GLU64       0.2287
     67  O         30.8680   -9.8870   46.2070 O.2    64  GLU64      -0.2864
     68  CB        27.8720   -9.0910   47.4900 C.3    64  GLU64       0.0415
     69  CG        27.0830   -8.6080   48.7040 C.3    64  GLU64       0.1163
     70  CD        27.1240   -9.5860   49.8710 C.2    64  GLU64       0.3649
     71  OE1       26.0830  -10.2240   50.1500 O.co2  64  GLU64      -0.2457
     72  OE2       28.1930   -9.7160   50.5120 O.co2  64  GLU64      -0.2457
     73  N         22.3540   13.3790   52.0460 N.3   179  LYS179     -0.1245
     74  CA        22.4190   12.7900   53.3740 C.3   179  LYS179      0.1561
     75  C         23.8560   12.8060   53.8690 C.2   179  LYS179      0.2260
     76  O         24.7370   12.1840   53.2780 O.2   179  LYS179     -0.2867
     77  CB        21.8950   11.3570   53.3630 C.3   179  LYS179      0.0271
     78  CG        22.2420   10.5840   54.6280 C.3   179  LYS179      0.0035
     79  CD        21.1020   10.6080   55.6210 C.3   179  LYS179      0.0206
     80  CE        21.6280   10.8560   57.0260 C.3   179  LYS179      0.1093
     81  NZ        22.3420    9.6650   57.5840 N.3   179  LYS179     -0.1314
     82  N         27.1490   11.9420   55.8780 N.3   181  ARG181     -0.1245
     83  CA        27.7070   10.6810   56.3520 C.3   181  ARG181      0.1563
     84  C         28.9310   11.0750   57.1740 C.2   181  ARG181      0.2260
     85  O         30.0710   10.9670   56.7190 O.2   181  ARG181     -0.2867
     86  CB        28.0920    9.8070   55.1620 C.3   181  ARG181      0.0307
     87  CG        27.1220    9.9260   54.0040 C.3   181  ARG181      0.0489
     88  CD        26.4580    8.6140   53.6690 C.3   181  ARG181      0.2205
     89  NE        26.5750    7.5980   54.7130 N.pl3 181  ARG181     -0.0865
     90  CZ        26.7660    6.3030   54.4580 C.cat 181  ARG181      0.5346
     91  NH1       26.8620    5.8830   53.1980 N.pl3 181  ARG181      0.1354
     92  NH2       26.8480    5.4190   55.4510 N.pl3 181  ARG181      0.1354
     93  N         26.0650   12.1820   50.6410 N.3   215  ASP215     -0.1239
     94  CA        25.6590   11.3250   49.5320 C.3   215  ASP215      0.1674
     95  C         24.3120   11.6840   48.9200 C.2   215  ASP215      0.2266
     96  O         23.3240   11.9090   49.6230 O.2   215  ASP215     -0.2867
     97  CB        25.6090    9.8650   49.9820 C.3   215  ASP215      0.1410
     98  CG        26.9790    9.2830   50.2210 C.2   215  ASP215      0.3668
     99  OD1       27.0490    8.1210   50.6760 O.co2 215  ASP215     -0.2456
    100  OD2       27.9790    9.9880   49.9540 O.co2 215  ASP215     -0.2456
    101  N         25.9400    6.4920   43.6080 N.3   228  THR228     -0.1218
    102  CA        26.1340    7.5880   44.5360 C.3   228  THR228      0.1862
    103  C         27.0150    8.7130   44.0630 C.2   228  THR228      0.2287
    104  O         28.0570    8.4880   43.4530 O.2   228  THR228     -0.2866
    105  CB        26.7690    7.0860   45.8380 C.3   228  THR228      0.1770
    106  OG1       25.9450    6.0600   46.4080 O.3   228  THR228     -0.2211
    107  CG2       26.9470    8.2460   46.8260 C.3   228  THR228      0.0375
@<TRIPOS>BOND
     1   104   103    2
     2   101   102    1
     3   103   102    1
     4   102   105    1
     5    42    40   am
     6   105   106    1
     7   105   107    1
     8    66    67    2
     9    66    65    1
    10    41    40    2
    11    40    39    1
    12    34    35    1
    13    12    13    1
    14    18    20   ar
    15    18    17   ar
    16    13    16    1
    17    13    14    1
    18    20    21   ar
    19    52    53    1
    20    35    36    1
    21    35    38    1
    22     1     2    1
    23    65    68    1
    24    65    64    1
    25    15    14    2
    26    68    69    1
    27    17    16    1
    28    17    19   ar
    29    64    54   am
    30    39    38    1
    31    21    19   ar
    32    21    23   ar
    33    14    26   am
    34     2     3    1
    35     2     5    1
    36    37    36    2
    37    54    55    2
    38    54    53    1
    39    36    43   am
    40    53    56    1
    41    45    46    2
    42    45    44    1
    43    19    22   ar
    44    23    25   ar
    45     4     3    2
    46    43    44    1
    47     5     6    1
    48    69    70    1
    49    26    27    1
    50    22    24   ar
    51    25    24   ar
    52    95    94    1
    53    95    96    2
    54    44    47    1
    55    28    29    2
    56    28    27    1
    57    48    47    1
    58    48    49    1
    59    56    57    1
    60    94    97    1
    61    94    93    1
    62     6     7    1
    63    27    30    1
    64    70    71   ar
    65    70    72   ar
    66   100    98   ar
    67    97    98    1
    68    51    49   am
    69    49    50    2
    70    98    99   ar
    71    57    58   ar
    72    57    59   ar
    73     7     8    1
    74    58    60   ar
    75    30    32    1
    76    30    31    1
    77    59    61   ar
    78     8     9    2
    79    60    62   ar
    80    31    33    1
    81    73    74    1
    82    61    62   ar
    83    62    63    1
    84     9    11    1
    85     9    10    1
    86    91    90    1
    87    76    75    2
    88    77    74    1
    89    77    78    1
    90    74    75    1
    91    88    87    1
    92    88    89    1
    93    87    86    1
    94    90    89    2
    95    90    92    1
    96    78    79    1
    97    86    83    1
    98    79    80    1
    99    82    83    1
   100    83    84    1
   101    85    84    2
   102    80    81    1
