@<TRIPOS>MOLECULE
tmp/1wv4A01.pdb
 99 95 0 0 0
SMALL
GASTEIGER

@<TRIPOS>ATOM
      1  N         39.3490   39.4440   49.5900 N.3    96  HIS96      -0.1241
      2  CA        39.7800   39.1870   48.2000 C.3    96  HIS96       0.1621
      3  C         38.5910   39.2370   47.2470 C.2    96  HIS96       0.2264
      4  O         38.6840   39.7130   46.1450 O.2    96  HIS96      -0.2867
      5  CB        40.4970   37.8200   48.0590 C.3    96  HIS96       0.0745
      6  CG        39.8960   36.7100   48.8740 C.ar   96  HIS96       0.0817
      7  ND1       40.3700   36.3800   50.1410 N.ar   96  HIS96      -0.2268
      8  CD2       38.9120   35.8280   48.6120 C.ar   96  HIS96       0.1154
      9  CE1       39.6900   35.3280   50.6010 C.ar   96  HIS96       0.1986
     10  NE2       38.8070   34.9850   49.6870 N.ar   96  HIS96      -0.2212
     11  N         38.9180   42.2940   46.1900 N.3    99  GLU99      -0.1231
     12  CA        40.2890   42.6630   45.9520 C.3    99  GLU99       0.1699
     13  C         40.8690   43.4710   47.0900 C.2    99  GLU99       0.2592
     14  O         41.7630   44.2510   46.8770 O.2    99  GLU99      -0.2718
     15  CB        40.4040   43.4320   44.6590 C.3    99  GLU99       0.0402
     16  CG        40.8590   42.5980   43.4530 C.3    99  GLU99       0.1161
     17  CD        42.2680   42.9870   42.9480 C.2    99  GLU99       0.3649
     18  OE1       42.5340   42.7960   41.7280 O.co2  99  GLU99      -0.2457
     19  OE2       43.1030   43.4720   43.7700 O.co2  99  GLU99      -0.2457
     20  N         40.3910   43.2620   48.3060 N.am  100  ARG100     -0.1966
     21  CA        40.9290   43.9980   49.4190 C.3   100  ARG100      0.1729
     22  C         41.3930   43.1420   50.5840 C.2   100  ARG100      0.2616
     23  O         40.9480   42.0210   50.7710 O.2   100  ARG100     -0.2715
     24  CB        39.8850   44.9720   49.9310 C.3   100  ARG100      0.0348
     25  CG        39.5120   46.0460   48.9720 C.3   100  ARG100      0.0492
     26  CD        38.2540   46.6800   49.4520 C.3   100  ARG100      0.2205
     27  NE        37.7790   47.7920   48.6310 N.pl3 100  ARG100     -0.0865
     28  CZ        36.5570   48.3360   48.7330 C.cat 100  ARG100      0.5346
     29  NH1       35.6820   47.8680   49.6110 N.pl3 100  ARG100      0.1354
     30  NH2       36.2060   49.3810   47.9880 N.pl3 100  ARG100      0.1354
     31  N         42.2990   43.7000   51.3740 N.am  101  GLN101     -0.1977
     32  CA        42.7750   43.0780   52.6150 C.3   101  GLN101      0.1601
     33  C         42.9950   44.2840   53.5540 C.2   101  GLN101      0.2287
     34  O         43.2570   45.3820   53.0890 O.2   101  GLN101     -0.2864
     35  CB        44.1360   42.4100   52.4730 C.3   101  GLN101      0.0394
     36  CG        44.3710   41.4840   51.3390 C.3   101  GLN101      0.0908
     37  CD        45.7650   40.9150   51.4760 C.2   101  GLN101      0.2608
     38  OE1       46.0130   40.0760   52.3200 O.2   101  GLN101     -0.2717
     39  NE2       46.6830   41.4000   50.6780 N.am  101  GLN101     -0.0878
     40  N         44.9910   44.8330   57.3810 N.3   103  MET103     -0.1196
     41  CA        45.7900   44.1310   58.3540 C.3   103  MET103      0.1786
     42  C         45.8720   45.0910   59.5340 C.2   103  MET103      0.2306
     43  O         46.0790   46.2720   59.3400 O.2   103  MET103     -0.2863
     44  CB        47.1890   43.8400   57.7370 C.2   103  MET103      0.0070
     45  CG        48.4080   43.5700   58.7660 C.2   103  MET103      0.0282
     46  SD        50.2640   43.6490   58.1930 S.3   103  MET103     -0.1125
     47  CE        50.8420   45.4670   58.9370 C.3   103  MET103      0.0742
     48  N         46.9350   48.3750   57.8680 N.3   133  GLU133     -0.1245
     49  CA        47.4060   48.5340   56.5030 C.3   133  GLU133      0.1567
     50  C         46.2600   48.3480   55.5670 C.2   133  GLU133      0.2260
     51  O         45.3450   47.6140   55.8720 O.2   133  GLU133     -0.2867
     52  CB        48.4880   47.5360   56.1530 C.3   133  GLU133      0.0388
     53  CG        48.6700   47.4690   54.6530 C.3   133  GLU133      0.1160
     54  CD        49.7380   46.4750   54.1690 C.2   133  GLU133      0.3649
     55  OE1       49.5490   45.9410   53.0560 O.co2 133  GLU133     -0.2457
     56  OE2       50.7510   46.2500   54.8740 O.co2 133  GLU133     -0.2457
     57  N         45.1000   47.4840   51.5200 N.3   135  TRP135     -0.1241
     58  CA        45.5030   46.8900   50.2640 C.3   135  TRP135      0.1605
     59  C         44.3110   46.9220   49.3400 C.2   135  TRP135      0.2264
     60  O         43.2560   46.4060   49.6580 O.2   135  TRP135     -0.2867
     61  CB        45.9180   45.4440   50.4990 C.3   135  TRP135      0.0550
     62  CG        46.8750   44.8260   49.4810 C.ar  135  TRP135      0.0003
     63  CD1       48.2560   44.8590   49.5010 C.ar  135  TRP135      0.0946
     64  CD2       46.5210   44.0580   48.3390 C.ar  135  TRP135      0.0152
     65  NE1       48.7640   44.1460   48.4500 N.ar  135  TRP135     -0.2442
     66  CE2       47.7230   43.6430   47.7240 C.ar  135  TRP135      0.0810
     67  CE3       45.3030   43.6670   47.7820 C.ar  135  TRP135      0.0012
     68  CZ2       47.7330   42.8510   46.5810 C.ar  135  TRP135      0.0191
     69  CZ3       45.3090   42.8870   46.6530 C.ar  135  TRP135      0.0001
     70  CH2       46.5050   42.4870   46.0610 C.ar  135  TRP135      0.0015
     71  N         48.0230   44.5170   37.8700 N.3   141  ARG141     -0.1245
     72  CA        48.7160   43.8460   38.9610 C.3   141  ARG141      0.1563
     73  C         49.5040   44.8350   39.8450 C.2   141  ARG141      0.2260
     74  O         50.0920   44.4510   40.8750 O.2   141  ARG141     -0.2867
     75  CB        49.6430   42.7660   38.3730 C.3   141  ARG141      0.0307
     76  CG        49.9350   41.5960   39.3100 C.3   141  ARG141      0.0489
     77  CD        48.8690   41.4770   40.4320 C.3   141  ARG141      0.2205
     78  NE        47.6070   40.8810   39.9750 N.pl3 141  ARG141     -0.0865
     79  CZ        46.5080   40.7230   40.7190 C.cat 141  ARG141      0.5346
     80  NH1       46.4810   41.1280   41.9840 N.pl3 141  ARG141      0.1354
     81  NH2       45.4290   40.1460   40.1900 N.pl3 141  ARG141      0.1354
     82  N         48.9520   50.0800   48.2550 N.3   145  ARG145     -0.1245
     83  CA        49.1000   49.6990   49.6420 C.3   145  ARG145      0.1563
     84  C         49.4180   50.8640   50.5540 C.2   145  ARG145      0.2260
     85  O         50.4150   51.5360   50.3340 O.2   145  ARG145     -0.2867
     86  CB        50.2600   48.7250   49.8140 C.3   145  ARG145      0.0307
     87  CG        50.0690   47.4050   49.1280 C.3   145  ARG145      0.0489
     88  CD        51.3180   46.5340   49.2850 C.3   145  ARG145      0.2205
     89  NE        51.4730   46.0110   50.6430 N.pl3 145  ARG145     -0.0865
     90  CZ        52.6100   45.5380   51.1680 C.cat 145  ARG145      0.5346
     91  NH1       53.7350   45.5130   50.4560 N.pl3 145  ARG145      0.1354
     92  NH2       52.6130   45.0900   52.4240 N.pl3 145  ARG145      0.1354
     93  N         53.6090   47.0870   45.9380 N.3   162  PRO162     -0.2116
     94  CA        52.6370   45.9760   45.7450 C.3   162  PRO162      0.1372
     95  C         52.9830   44.5220   46.1790 C.2   162  PRO162      0.2244
     96  O         52.9500   43.6060   45.3930 O.2   162  PRO162     -0.2868
     97  CB        52.3140   46.0540   44.2400 C.3   162  PRO162      0.0268
     98  CG        53.6340   46.6110   43.6640 C.3   162  PRO162      0.0207
     99  CD        53.9290   47.7300   44.6440 C.3   162  PRO162      0.0892
@<TRIPOS>BOND
     1    71    72    1
     2    75    72    1
     3    75    76    1
     4    72    73    1
     5    76    77    1
     6    73    74    2
     7    78    77    1
     8    78    79    2
     9    81    79    1
    10    79    80    1
    11    18    17   ar
    12    17    16    1
    13    17    19   ar
    14    16    15    1
    15    98    97    1
    16    98    99    1
    17    97    94    1
    18    99    93    1
    19    15    12    1
    20    96    95    2
    21    94    93    1
    22    94    95    1
    23    12    11    1
    24    12    13    1
    25    70    68   ar
    26    70    69   ar
    27     4     3    2
    28    68    66   ar
    29    69    67   ar
    30    14    13    2
    31    13    20   am
    32     3     2    1
    33    66    64   ar
    34    66    65   ar
    35    67    64   ar
    36    30    28    1
    37     5     2    1
    38     5     6    1
    39     2     1    1
    40    82    83    1
    41    20    21    1
    42    64    62   ar
    43    65    63   ar
    44     8     6   ar
    45     8    10   ar
    46    27    28    2
    47    27    26    1
    48    28    29    1
    49     6     7   ar
    50    25    26    1
    51    25    24    1
    52    87    88    1
    53    87    86    1
    54    88    89    1
    55    59    60    2
    56    59    58    1
    57    21    24    1
    58    21    22    1
    59    62    63   ar
    60    62    61    1
    61    83    86    1
    62    83    84    1
    63    10     9   ar
    64     7     9   ar
    65    58    61    1
    66    58    57    1
    67    85    84    2
    68    91    90    1
    69    22    23    2
    70    22    31   am
    71    89    90    2
    72    39    37   am
    73    90    92    1
    74    36    37    1
    75    36    35    1
    76    31    32    1
    77    37    38    2
    78    35    32    1
    79    32    33    1
    80    55    54   ar
    81    34    33    2
    82    54    53    1
    83    54    56   ar
    84    53    52    1
    85    50    51    2
    86    50    49    1
    87    52    49    1
    88    49    48    1
    89    40    41    1
    90    44    41    1
    91    44    45    2
    92    46    45    1
    93    46    47    1
    94    41    42    1
    95    43    42    2
