@<TRIPOS>MOLECULE
tmp/1wv4A00.pdb
 123 119 0 0 0
SMALL
GASTEIGER

@<TRIPOS>ATOM
      1  N         30.2020   36.5950   55.7000 N.3    39  ASP39      -0.1239
      2  CA        30.8430   37.0370   56.9340 C.3    39  ASP39       0.1674
      3  C         31.7760   38.2710   56.7800 C.2    39  ASP39       0.2266
      4  O         32.9630   38.2020   57.0690 O.2    39  ASP39      -0.2867
      5  CB        31.5790   35.8380   57.5350 C.3    39  ASP39       0.1410
      6  CG        30.6230   34.8080   58.1480 C.2    39  ASP39       0.3668
      7  OD1       29.8600   35.2190   59.0770 O.co2  39  ASP39      -0.2456
      8  OD2       30.6410   33.6090   57.7080 O.co2  39  ASP39      -0.2456
      9  N         34.2460   38.7060   59.3390 N.3    42  ALA42      -0.1245
     10  CA        35.1100   37.5950   59.6780 C.3    42  ALA42       0.1562
     11  C         36.5480   38.0340   59.5850 C.2    42  ALA42       0.2260
     12  O         36.9410   38.5870   58.5990 O.2    42  ALA42      -0.2867
     13  CB        34.8950   36.4750   58.7260 C.3    42  ALA42       0.0290
     14  N         43.2770   31.5660   63.2630 N.3    57  ARG57      -0.1231
     15  CA        41.9220   31.0310   63.2590 C.3    57  ARG57       0.1694
     16  C         41.0200   32.1700   63.0120 C.2    57  ARG57       0.2592
     17  O         41.3320   33.2360   63.4590 O.2    57  ARG57      -0.2718
     18  CB        41.5320   30.4330   64.6110 C.3    57  ARG57       0.0321
     19  CG        41.2440   31.4480   65.7200 C.3    57  ARG57       0.0489
     20  CD        42.5510   31.9880   66.2210 C.3    57  ARG57       0.2205
     21  NE        43.3420   30.9570   66.9030 N.pl3  57  ARG57      -0.0865
     22  CZ        44.6020   31.0970   67.2400 C.cat  57  ARG57       0.5346
     23  NH1       45.2570   32.2220   66.9520 N.pl3  57  ARG57       0.1354
     24  NH2       45.1780   30.1160   67.8970 N.pl3  57  ARG57       0.1354
     25  N         39.8900   31.9370   62.3600 N.am   58  ILE58      -0.1966
     26  CA        38.9060   32.9720   62.0750 C.3    58  ILE58       0.1727
     27  C         38.1160   33.2680   63.3450 C.2    58  ILE58       0.2616
     28  O         37.8150   32.3470   64.1330 O.2    58  ILE58      -0.2715
     29  CB        37.9740   32.5250   60.8780 C.3    58  ILE58       0.0290
     30  CG1       38.8140   32.5610   59.5620 C.3    58  ILE58       0.0022
     31  CG2       36.7270   33.4590   60.7200 C.3    58  ILE58       0.0023
     32  CD1       38.0540   32.1620   58.2930 C.3    58  ILE58       0.0001
     33  N         37.7890   34.5480   63.5190 N.am   59  VAL59      -0.1963
     34  CA        37.0620   35.0580   64.6620 C.3    59  VAL59       0.1727
     35  C         36.2300   36.1550   64.0540 C.2    59  VAL59       0.2616
     36  O         36.5300   36.5970   62.9260 O.2    59  VAL59      -0.2715
     37  CB        38.0290   35.6530   65.6660 C.3    59  VAL59       0.0290
     38  CG1       37.3380   36.2960   66.7040 C.3    59  VAL59       0.0023
     39  CG2       38.8180   34.6100   66.2800 C.3    59  VAL59       0.0023
     40  N         35.1830   36.5830   64.7450 N.am   60  LEU60      -0.1977
     41  CA        34.3150   37.6220   64.1940 C.3    60  LEU60       0.1596
     42  C         34.4690   38.9550   64.9120 C.2    60  LEU60       0.2287
     43  O         34.5480   38.9900   66.1380 O.2    60  LEU60      -0.2864
     44  CB        32.8600   37.1790   64.2900 C.3    60  LEU60       0.0297
     45  CG        32.3880   36.0510   63.3710 C.3    60  LEU60       0.0022
     46  CD1       30.8860   35.7890   63.6660 C.3    60  LEU60       0.0001
     47  CD2       32.5560   36.4610   61.8910 C.3    60  LEU60       0.0001
     48  N         33.2800   42.0170   66.7150 N.3    62  LYS62      -0.1245
     49  CA        32.0050   42.4100   67.3600 C.3    62  LYS62       0.1561
     50  C         31.8260   43.9150   67.6510 C.2    62  LYS62       0.2260
     51  O         30.7230   44.3440   68.0130 O.2    62  LYS62      -0.2867
     52  CB        31.8180   41.6620   68.6760 C.3    62  LYS62       0.0271
     53  CG        32.0220   40.1650   68.6260 C.3    62  LYS62       0.0035
     54  CD        31.3190   39.4670   67.4680 C.3    62  LYS62       0.0206
     55  CE        31.3790   37.9030   67.6370 C.3    62  LYS62       0.1093
     56  NZ        32.7710   37.3070   67.9200 N.3    62  LYS62      -0.1314
     57  N         35.2760   37.8600   70.4390 N.3    72  TYR72      -0.1227
     58  CA        35.0310   37.0160   71.6020 C.3    72  TYR72       0.1736
     59  C         35.6190   35.6310   71.4330 C.2    72  TYR72       0.2596
     60  O         35.7070   35.0920   70.3550 O.2    72  TYR72      -0.2718
     61  CB        33.5240   36.8840   71.8970 C.3    72  TYR72       0.0548
     62  CG        32.8570   38.2010   72.1810 C.ar   72  TYR72      -0.0200
     63  CD1       31.5480   38.4480   71.7570 C.ar   72  TYR72      -0.0009
     64  CD2       33.5250   39.1970   72.8940 C.ar   72  TYR72      -0.0009
     65  CE1       30.9210   39.6430   72.0360 C.ar   72  TYR72       0.0417
     66  CE2       32.9070   40.4100   73.1820 C.ar   72  TYR72       0.0417
     67  CZ        31.6090   40.6240   72.7410 C.ar   72  TYR72       0.1957
     68  OH        31.0390   41.8510   72.9150 O.3    72  TYR72      -0.2866
     69  N         35.9970   35.0560   72.5510 N.am   73  THR73      -0.1939
     70  CA        36.5490   33.7260   72.5730 C.3    73  THR73       0.2028
     71  C         36.1690   33.1020   73.9370 C.2    73  THR73       0.2642
     72  O         35.5850   33.7630   74.8150 O.2    73  THR73      -0.2714
     73  CB        38.0870   33.7890   72.4070 C.3    73  THR73       0.1808
     74  OG1       38.5670   32.5460   71.8850 O.3    73  THR73      -0.2208
     75  CG2       38.7750   34.0870   73.7540 C.3    73  THR73       0.0379
     76  N         36.4870   31.8200   74.0830 N.am   74  ASN74      -0.1971
     77  CA        36.2490   31.0870   75.2950 C.3    74  ASN74       0.1688
     78  C         37.5470   31.3770   76.0460 C.2    74  ASN74       0.2292
     79  O         38.6150   31.4190   75.4350 O.2    74  ASN74      -0.2864
     80  CB        36.0910   29.6240   74.9310 C.3    74  ASN74       0.1181
     81  CG        35.6150   28.8270   76.0620 C.2    74  ASN74       0.2629
     82  OD1       34.6000   28.1480   75.9690 O.2    74  ASN74      -0.2716
     83  ND2       36.3380   28.9030   77.1710 N.am   74  ASN74      -0.0877
     84  N         40.7250   28.6360   75.8250 N.3    77  SER77      -0.1202
     85  CA        40.9790   28.1560   74.4720 C.3    77  SER77       0.2020
     86  C         42.4020   28.5710   74.1410 C.2    77  SER77       0.2619
     87  O         42.9180   29.5970   74.6230 O.2    77  SER77      -0.2717
     88  CB        40.0330   28.7920   73.4720 C.3    77  SER77       0.2103
     89  OG        40.4660   30.1060   73.1370 O.3    77  SER77      -0.2182
     90  N         43.0350   27.7580   73.3150 N.am   78  ARG78      -0.1965
     91  CA        44.4100   27.9610   72.9130 C.3    78  ARG78       0.1729
     92  C         44.8070   29.4060   72.5820 C.2    78  ARG78       0.2616
     93  O         45.8590   29.8620   73.0110 O.2    78  ARG78      -0.2715
     94  CB        44.7090   27.0330   71.7340 C.3    78  ARG78       0.0348
     95  CG        46.2000   26.8630   71.3910 C.3    78  ARG78       0.0492
     96  CD        46.4100   25.5800   70.5390 C.3    78  ARG78       0.2205
     97  NE        45.6620   25.6810   69.2880 N.pl3  78  ARG78      -0.0865
     98  CZ        45.7420   24.8290   68.2730 C.cat  78  ARG78       0.5346
     99  NH1       44.9960   25.0500   67.1960 N.pl3  78  ARG78       0.1354
    100  NH2       46.5540   23.7750   68.3300 N.pl3  78  ARG78       0.1354
    101  N         43.9870   30.1380   71.8360 N.am   79  LYS79      -0.1977
    102  CA        44.3660   31.5060   71.4860 C.3    79  LYS79       0.1596
    103  C         44.3870   32.3900   72.7430 C.2    79  LYS79       0.2287
    104  O         45.1950   33.3420   72.8360 O.2    79  LYS79      -0.2864
    105  CB        43.4410   32.1010   70.3720 C.3    79  LYS79       0.0298
    106  CG        42.0850   32.5750   70.8760 C.3    79  LYS79       0.0038
    107  CD        41.2150   33.1080   69.7760 C.3    79  LYS79       0.0206
    108  CE        40.6220   31.9890   68.9770 C.3    79  LYS79       0.1093
    109  NZ        39.5580   31.3290   69.7840 N.3    79  LYS79      -0.1314
    110  N         32.8380   32.3110   78.1450 N.3   122  TRP122     -0.1241
    111  CA        33.0470   33.1100   76.9270 C.3   122  TRP122      0.1605
    112  C         33.3990   34.5860   77.1710 C.2   122  TRP122      0.2264
    113  O         32.5390   35.3670   77.5980 O.2   122  TRP122     -0.2867
    114  CB        31.7990   33.0300   76.0250 C.3   122  TRP122      0.0550
    115  CG        31.9780   32.0900   74.7960 C.ar  122  TRP122      0.0003
    116  CD1       32.1370   30.7210   74.8160 C.ar  122  TRP122      0.0946
    117  CD2       32.0930   32.5140   73.4250 C.ar  122  TRP122      0.0152
    118  NE1       32.3520   30.2650   73.5330 N.ar  122  TRP122     -0.2442
    119  CE2       32.3360   31.3140   72.6510 C.ar  122  TRP122      0.0810
    120  CE3       32.0310   33.7230   72.7330 C.ar  122  TRP122      0.0012
    121  CZ2       32.5100   31.3500   71.2560 C.ar  122  TRP122      0.0191
    122  CZ3       32.2030   33.7630   71.3550 C.ar  122  TRP122      0.0001
    123  CH2       32.4430   32.5740   70.6300 C.ar  122  TRP122      0.0015
@<TRIPOS>BOND
     1     1     2    1
     2     3     2    1
     3     3     4    2
     4     2     5    1
     5     5     6    1
     6     8     6   ar
     7     6     7   ar
     8    32    30    1
     9    12    11    2
    10    13    10    1
    11     9    10    1
    12    30    29    1
    13    11    10    1
    14    31    29    1
    15    29    26    1
    16    47    45    1
    17    26    25    1
    18    26    27    1
    19    25    16   am
    20    36    35    2
    21    16    15    1
    22    16    17    2
    23    15    14    1
    24    15    18    1
    25    27    33   am
    26    27    28    2
    27    45    46    1
    28    45    44    1
    29    33    34    1
    30    35    34    1
    31    35    40   am
    32    41    44    1
    33    41    40    1
    34    41    42    1
    35    18    19    1
    36    34    37    1
    37    42    43    2
    38    37    39    1
    39    37    38    1
    40    19    20    1
    41    20    21    1
    42    48    49    1
    43    21    22    2
    44    23    22    1
    45    99    98    1
    46    22    24    1
    47    49    50    1
    48    49    52    1
    49    54    55    1
    50    54    53    1
    51    55    56    1
    52    50    51    2
    53    98   100    1
    54    98    97    2
    55    53    52    1
    56   108   107    1
    57   108   109    1
    58    97    96    1
    59   107   106    1
    60    60    59    2
    61   105   106    1
    62   105   102    1
    63    57    58    1
    64    96    95    1
    65   123   121   ar
    66   123   122   ar
    67   121   119   ar
    68   122   120   ar
    69    95    94    1
    70    59    58    1
    71    59    69   am
    72   102   101    1
    73   102   103    1
    74    58    61    1
    75    94    91    1
    76    63    65   ar
    77    63    62   ar
    78   101    92   am
    79    74    73    1
    80    61    62    1
    81    65    67   ar
    82    62    64   ar
    83    73    70    1
    84    73    75    1
    85    69    70    1
    86    70    71    1
    87    92    91    1
    88    92    93    2
    89   119   117   ar
    90   119   118   ar
    91   120   117   ar
    92    67    68    1
    93    67    66   ar
    94   103   104    2
    95    64    66   ar
    96    91    90    1
    97    89    88    1
    98    90    86   am
    99   117   115   ar
   100    88    85    1
   101   118   116   ar
   102    71    76   am
   103    71    72    2
   104    76    77    1
   105    86    85    1
   106    86    87    2
   107    85    84    1
   108   115   116   ar
   109   115   114    1
   110    80    77    1
   111    80    81    1
   112    77    78    1
   113    79    78    2
   114    82    81    2
   115   114   111    1
   116    81    83   am
   117   111   112    1
   118   111   110    1
   119   112   113    2
