@<TRIPOS>MOLECULE
tmp/1wv7B00.pdb
 216 214 0 0 0
SMALL
GASTEIGER

@<TRIPOS>ATOM
      1  N         31.7260   14.4290    4.2510 N.3    41  HIS41      -0.1241
      2  CA        32.1770   13.1420    3.7290 C.3    41  HIS41       0.1621
      3  C         31.1340   12.3110    2.9880 C.2    41  HIS41       0.2264
      4  O         31.4820   11.3890    2.2580 O.2    41  HIS41      -0.2867
      5  CB        32.8410   12.3000    4.8260 C.3    41  HIS41       0.0745
      6  CG        31.8830   11.5530    5.6980 C.ar   41  HIS41       0.0817
      7  ND1       31.3430   12.0880    6.8460 N.ar   41  HIS41      -0.2268
      8  CD2       31.4130   10.2860    5.6150 C.ar   41  HIS41       0.1154
      9  CE1       30.5880   11.1800    7.4380 C.ar   41  HIS41       0.1986
     10  NE2       30.6140   10.0770    6.7110 N.ar   41  HIS41      -0.2212
     11  N         32.0750   12.2430   -0.6800 N.3    44  ASP44      -0.1225
     12  CA        33.4070   11.8180   -1.1100 C.3    44  ASP44       0.1805
     13  C         33.4240   11.0080   -2.4050 C.2    44  ASP44       0.2597
     14  O         34.3080   11.1810   -3.2210 O.2    44  ASP44      -0.2718
     15  CB        34.0770   10.9850   -0.0170 C.3    44  ASP44       0.1424
     16  CG        34.5770   11.8230    1.1400 C.2    44  ASP44       0.3668
     17  OD1       34.1670   12.9960    1.2620 O.co2  44  ASP44      -0.2456
     18  OD2       35.3820   11.2980    1.9370 O.co2  44  ASP44      -0.2456
     19  N         32.4500   10.1190   -2.5850 N.am   45  LYS45      -0.1979
     20  CA        32.3990    9.2820   -3.7860 C.3    45  LYS45       0.1596
     21  C         31.2360    9.5460   -4.7390 C.2    45  LYS45       0.2287
     22  O         30.8750    8.6790   -5.5330 O.2    45  LYS45      -0.2864
     23  CB        32.3820    7.7980   -3.4030 C.3    45  LYS45       0.0298
     24  CG        33.7390    7.1120   -3.4870 C.3    45  LYS45       0.0038
     25  CD        34.4870    7.1300   -2.1690 C.3    45  LYS45       0.0206
     26  CE        33.7300    6.3410   -1.1170 C.3    45  LYS45       0.1093
     27  NZ        34.5560    6.0600    0.0890 N.3    45  LYS45      -0.1314
     28  N         38.1450   21.2140    3.7720 N.3    82  TYR82      -0.1241
     29  CA        37.8270   19.7970    3.9630 C.3    82  TYR82       0.1605
     30  C         38.5440   18.9070    2.9390 C.2    82  TYR82       0.2264
     31  O         38.6210   19.2270    1.7580 O.2    82  TYR82      -0.2867
     32  CB        36.3110   19.5510    3.8590 C.3    82  TYR82       0.0534
     33  CG        35.9520   18.0820    3.8180 C.ar   82  TYR82      -0.0201
     34  CD1       35.9430   17.3170    4.9770 C.ar   82  TYR82      -0.0009
     35  CD2       35.7030   17.4410    2.6100 C.ar   82  TYR82      -0.0009
     36  CE1       35.6990   15.9500    4.9340 C.ar   82  TYR82       0.0417
     37  CE2       35.4600   16.0740    2.5520 C.ar   82  TYR82       0.0417
     38  CZ        35.4590   15.3360    3.7170 C.ar   82  TYR82       0.1957
     39  OH        35.2080   13.9830    3.6730 O.3    82  TYR82      -0.2866
     40  N         37.9720   11.7840    2.3770 N.3    85  GLY85      -0.1210
     41  CA        38.6030   10.6430    3.0130 C.3    85  GLY85       0.1956
     42  C         39.0940   10.9040    4.4170 C.2    85  GLY85       0.2613
     43  O         39.5040    9.9850    5.1030 O.2    85  GLY85      -0.2717
     44  N         39.0390   12.1610    4.8450 N.am   86  THR86      -0.1938
     45  CA        39.4970   12.5290    6.1780 C.3    86  THR86       0.2028
     46  C         38.3310   12.8720    7.1110 C.2    86  THR86       0.2642
     47  O         37.2110   12.5120    6.8270 O.2    86  THR86      -0.2714
     48  CB        40.5150   13.6890    6.1010 C.3    86  THR86       0.1808
     49  OG1       39.8800   14.8730    5.6080 O.3    86  THR86      -0.2208
     50  CG2       41.6420   13.3040    5.1630 C.3    86  THR86       0.0379
     51  N         38.6000   13.5790    8.2090 N.am   87  THR87      -0.1950
     52  CA        37.5500   13.8810    9.1860 C.3    87  THR87       0.1897
     53  C         37.2860   15.3320    9.6160 C.2    87  THR87       0.2313
     54  O         36.2080   15.6400   10.1270 O.2    87  THR87      -0.2863
     55  CB        37.7880   13.0840   10.4940 C.3    87  THR87       0.1794
     56  OG1       39.1060   13.3670   10.9780 O.3    87  THR87      -0.2208
     57  CG2       37.6370   11.5870   10.2660 C.3    87  THR87       0.0378
     58  N         33.9400   18.2930    8.7520 N.3    90  ASP90      -0.1239
     59  CA        32.9670   17.3810    8.1690 C.3    90  ASP90       0.1674
     60  C         31.5820   18.0210    8.2170 C.2    90  ASP90       0.2266
     61  O         30.7760   17.7040    9.0850 O.2    90  ASP90      -0.2867
     62  CB        32.9630   16.0690    8.9490 C.3    90  ASP90       0.1410
     63  CG        32.2790   14.9520    8.2020 C.2    90  ASP90       0.3668
     64  OD1       31.7830   15.1940    7.0830 O.co2  90  ASP90      -0.2456
     65  OD2       32.2370   13.8260    8.7350 O.co2  90  ASP90      -0.2456
     66  N         44.4820    4.5110   19.6550 N.3   165  VAL165     -0.1231
     67  CA        44.5660    3.6920   18.4600 C.3   165  VAL165      0.1692
     68  C         45.5530    4.4210   17.5680 C.2   165  VAL165      0.2593
     69  O         45.1780    5.3070   16.8000 O.2   165  VAL165     -0.2718
     70  CB        43.2040    3.5750   17.7430 C.3   165  VAL165      0.0266
     71  CG1       43.3870    2.9420   16.3740 C.3   165  VAL165      0.0020
     72  CG2       42.2460    2.7400   18.5820 C.3   165  VAL165      0.0020
     73  N         46.8220    4.0530   17.7070 N.am  166  GLY166     -0.1942
     74  CA        47.8780    4.6730   16.9350 C.3   166  GLY166      0.2014
     75  C         47.4600    5.0530   15.5340 C.2   166  GLY166      0.2639
     76  O         46.8140    4.2710   14.8310 O.2   166  GLY166     -0.2714
     77  N         47.8180    6.2710   15.1410 N.am  167  ASP167     -0.1957
     78  CA        47.5140    6.7790   13.8110 C.3   167  ASP167      0.1840
     79  C         46.0140    6.9000   13.5140 C.2   167  ASP167      0.2623
     80  O         45.5580    6.5880   12.4300 O.2   167  ASP167     -0.2715
     81  CB        48.2070    5.8960   12.7660 C.3   167  ASP167      0.1450
     82  CG        49.6870    5.6750   13.0780 C.2   167  ASP167      0.3671
     83  OD1       50.4550    6.6610   13.0670 O.co2 167  ASP167     -0.2456
     84  OD2       50.0840    4.5160   13.3470 O.co2 167  ASP167     -0.2456
     85  N         45.2530    7.3590   14.4990 N.am  168  SER168     -0.1936
     86  CA        43.8210    7.5610   14.3240 C.3   168  SER168      0.2040
     87  C         43.6130    9.0760   14.2610 C.2   168  SER168      0.2485
     88  O         44.4020    9.8230   14.7820 O.2   168  SER168     -0.2729
     89  CB        43.0500    6.9540   15.4970 C.3   168  SER168      0.2129
     90  OG        43.3920    7.5750   16.7180 O.3   168  SER168     -0.2179
     91  N         42.5370    9.5350   13.6130 N.am  169  PRO169     -0.2726
     92  CA        42.2290   10.9650   13.4740 C.3   169  PRO169      0.1402
     93  C         42.2520   11.7800   14.7720 C.2   169  PRO169      0.2269
     94  O         41.8760   11.2930   15.8230 O.2   169  PRO169     -0.2865
     95  CB        40.8470   10.9500   12.8230 C.3   169  PRO169      0.0296
     96  CG        40.8830    9.6920   12.0050 C.3   169  PRO169      0.0237
     97  CD        41.4940    8.7180   12.9770 C.3   169  PRO169      0.0939
     98  N         25.6940    4.3970   20.3980 N.3   186  ASP186     -0.1225
     99  CA        26.4400    5.3450   19.5920 C.3   186  ASP186      0.1805
    100  C         25.7540    5.4310   18.2340 C.2   186  ASP186      0.2598
    101  O         24.9150    4.6120   17.9310 O.2   186  ASP186     -0.2718
    102  CB        27.8840    4.8260   19.4820 C.3   186  ASP186      0.1424
    103  CG        28.7380    5.6090   18.5010 C.2   186  ASP186      0.3668
    104  OD1       28.5490    6.8370   18.3580 O.co2 186  ASP186     -0.2456
    105  OD2       29.6210    4.9770   17.8880 O.co2 186  ASP186     -0.2456
    106  N         26.0750    6.4480   17.4420 N.am  187  SER187     -0.1938
    107  CA        25.4970    6.5650   16.1120 C.3   187  SER187      0.2055
    108  C         26.4180    5.7630   15.1930 C.2   187  SER187      0.2643
    109  O         27.4950    5.3470   15.6070 O.2   187  SER187     -0.2714
    110  CB        25.4100    8.0370   15.6830 C.3   187  SER187      0.2130
    111  OG        26.6050    8.7450   15.9490 O.3   187  SER187     -0.2179
    112  N         26.0080    5.5270   13.9550 N.am  188  CYS188     -0.1953
    113  CA        26.8490    4.7320   13.0690 C.3   188  CYS188      0.1843
    114  C         27.0010    5.3450   11.6810 C.2   188  CYS188      0.2625
    115  O         26.3640    6.3240   11.3750 O.2   188  CYS188     -0.2714
    116  CB        26.2920    3.3060   13.0020 C.3   188  CYS188      0.0997
    117  SG        27.4850    2.0490   12.4660 S.3   188  CYS188     -0.0797
    118  N         27.8700    4.7600   10.8610 N.am  189  LYS189     -0.1977
    119  CA        28.1410    5.2560    9.5090 C.3   189  LYS189      0.1596
    120  C         26.9330    5.7090    8.6950 C.2   189  LYS189      0.2287
    121  O         26.9570    6.7620    8.0970 O.2   189  LYS189     -0.2864
    122  CB        28.8990    4.1980    8.7060 C.3   189  LYS189      0.0298
    123  CG        30.2820    3.8640    9.2410 C.3   189  LYS189      0.0038
    124  CD        31.0380    3.0730    8.2000 C.3   189  LYS189      0.0206
    125  CE        32.3220    2.4740    8.7330 C.3   189  LYS189      0.1093
    126  NZ        33.0040    1.6950    7.6560 N.3   189  LYS189     -0.1314
    127  N         25.5650    9.2140    9.2340 N.3   192  SER192     -0.1217
    128  CA        26.3930   10.3500    8.8580 C.3   192  SER192      0.1889
    129  C         25.5440   11.4980    8.3330 C.2   192  SER192      0.2288
    130  O         24.6450   11.2900    7.5070 O.2   192  SER192     -0.2866
    131  CB        27.3940    9.9420    7.7790 C.3   192  SER192      0.2089
    132  OG        28.2890    8.9690    8.2740 O.3   192  SER192     -0.2183
    133  N         26.5330   13.9560   12.8340 N.3   210  VAL210     -0.1231
    134  CA        27.1330   12.6350   12.9250 C.3   210  VAL210      0.1692
    135  C         28.2580   12.6620   11.9140 C.2   210  VAL210      0.2593
    136  O         28.0120   12.8080   10.7190 O.2   210  VAL210     -0.2718
    137  CB        26.1520   11.5200   12.5270 C.3   210  VAL210      0.0266
    138  CG1       26.8210   10.1710   12.7110 C.3   210  VAL210      0.0020
    139  CG2       24.8670   11.6100   13.3660 C.3   210  VAL210      0.0020
    140  N         29.4880   12.5160   12.4010 N.am  211  SER211     -0.1938
    141  CA        30.6730   12.5610   11.5510 C.3   211  SER211      0.2055
    142  C         31.5090   11.2870   11.4870 C.2   211  SER211      0.2643
    143  O         31.6310   10.6840   10.4340 O.2   211  SER211     -0.2714
    144  CB        31.5640   13.7130   11.9910 C.3   211  SER211      0.2130
    145  OG        32.7480   13.7390   11.2280 O.3   211  SER211     -0.2179
    146  N         32.1000   10.8940   12.6090 N.am  212  TRP212     -0.1959
    147  CA        32.9330    9.6980   12.6280 C.3   212  TRP212      0.1771
    148  C         33.0990    9.0730   14.0020 C.2   212  TRP212      0.2620
    149  O         32.4920    9.4980   14.9780 O.2   212  TRP212     -0.2715
    150  CB        34.3230   10.0040   12.0530 C.3   212  TRP212      0.0590
    151  CG        35.1310   11.0260   12.8370 C.ar  212  TRP212      0.0006
    152  CD1       34.9520   12.3830   12.8550 C.ar  212  TRP212      0.0946
    153  CD2       36.2640   10.7650   13.6730 C.ar  212  TRP212      0.0152
    154  NE1       35.9080   12.9770   13.6420 N.ar  212  TRP212     -0.2442
    155  CE2       36.7250   12.0060   14.1570 C.ar  212  TRP212      0.0810
    156  CE3       36.9340    9.6020   14.0580 C.ar  212  TRP212      0.0012
    157  CZ2       37.8280   12.1170   15.0050 C.ar  212  TRP212      0.0191
    158  CZ3       38.0310    9.7170   14.9010 C.ar  212  TRP212      0.0001
    159  CH2       38.4660   10.9640   15.3640 C.ar  212  TRP212      0.0015
    160  N         33.9490    8.0560   14.0550 N.am  213  GLY213     -0.1940
    161  CA        34.2150    7.3660   15.2970 C.3   213  GLY213      0.2014
    162  C         34.9270    6.0620   15.0110 C.2   213  GLY213      0.2639
    163  O         34.9380    5.6130   13.8850 O.2   213  GLY213     -0.2714
    164  N         35.5270    5.4700   16.0390 N.am  214  GLN214     -0.1963
    165  CA        36.2440    4.2050   15.9240 C.3   214  GLN214      0.1733
    166  C         35.1840    3.1310   15.7780 C.2   214  GLN214      0.2617
    167  O         34.6890    2.6260   16.7540 O.2   214  GLN214     -0.2715
    168  CB        37.0560    3.9720   17.1960 C.3   214  GLN214      0.0408
    169  CG        37.9630    2.7610   17.1860 C.3   214  GLN214      0.0908
    170  CD        39.1480    2.9360   16.2670 C.2   214  GLN214      0.2608
    171  OE1       39.8080    3.9730   16.2840 O.2   214  GLN214     -0.2717
    172  NE2       39.4350    1.9170   15.4700 N.am  214  GLN214     -0.0878
    173  N         34.8460    2.7890   14.5410 N.am  215  GLY215     -0.1940
    174  CA        33.8110    1.7990   14.3090 C.3   215  GLY215      0.2014
    175  C         32.4940    2.3350   14.8460 C.2   215  GLY215      0.2639
    176  O         32.2500    3.5260   14.7880 O.2   215  GLY215     -0.2714
    177  N         31.6430    1.4590   15.3710 N.am  216  CYS216     -0.1967
    178  CA        30.3630    1.8920   15.9240 C.3   216  CYS216      0.1712
    179  C         30.1400    1.2700   17.3020 C.2   216  CYS216      0.2296
    180  O         30.0710    0.0610   17.4420 O.2   216  CYS216     -0.2864
    181  CB        29.2130    1.5360   14.9620 C.3   216  CYS216      0.0983
    182  SG        29.2200    2.5280   13.4310 S.3   216  CYS216     -0.0798
    183  N         34.0300    6.8130   21.8300 N.3   222  PHE222     -0.1227
    184  CA        32.8320    7.6290   21.7850 C.3   222  PHE222      0.1736
    185  C         32.6240    8.0990   20.3580 C.2   222  PHE222      0.2596
    186  O         33.5560    8.0910   19.5560 O.2   222  PHE222     -0.2718
    187  CB        33.0010    8.8710   22.6670 C.3   222  PHE222      0.0547
    188  CG        33.1050    8.5820   24.1290 C.ar  222  PHE222     -0.0202
    189  CD1       31.9870    8.6520   24.9430 C.ar  222  PHE222     -0.0042
    190  CD2       34.3360    8.2850   24.7040 C.ar  222  PHE222     -0.0042
    191  CE1       32.0910    8.4360   26.3080 C.ar  222  PHE222     -0.0003
    192  CE2       34.4510    8.0690   26.0660 C.ar  222  PHE222     -0.0003
    193  CZ        33.3260    8.1450   26.8690 C.ar  222  PHE222     -0.0000
    194  N         31.4050    8.5170   20.0450 N.am  223  GLY223     -0.1942
    195  CA        31.1450    9.0320   18.7160 C.3   223  GLY223      0.2014
    196  C         31.7170   10.4400   18.6010 C.2   223  GLY223      0.2639
    197  O         31.9200   11.1150   19.6080 O.2   223  GLY223     -0.2714
    198  N         32.0000   10.8800   17.3790 N.am  224  VAL224     -0.1963
    199  CA        32.5370   12.2180   17.1710 C.3   224  VAL224      0.1727
    200  C         31.6210   12.9650   16.2240 C.2   224  VAL224      0.2616
    201  O         31.2880   12.4880   15.1630 O.2   224  VAL224     -0.2715
    202  CB        33.9750   12.2170   16.5640 C.3   224  VAL224      0.0290
    203  CG1       34.5170   13.6420   16.5560 C.3   224  VAL224      0.0023
    204  CG2       34.9070   11.3110   17.3610 C.3   224  VAL224      0.0023
    205  N         31.2220   14.1580   16.6290 N.am  225  TYR225     -0.1974
    206  CA        30.3260   14.9550   15.8180 C.3   225  TYR225      0.1639
    207  C         30.9550   16.2860   15.4340 C.2   225  TYR225      0.2290
    208  O         31.7850   16.8250   16.1450 O.2   225  TYR225     -0.2864
    209  CB        29.0250   15.2060   16.5860 C.3   225  TYR225      0.0560
    210  CG        28.3030   13.9390   16.9940 C.ar  225  TYR225     -0.0198
    211  CD1       28.7110   13.2020   18.1050 C.ar  225  TYR225     -0.0009
    212  CD2       27.2490   13.4500   16.2380 C.ar  225  TYR225     -0.0009
    213  CE1       28.0920   12.0190   18.4410 C.ar  225  TYR225      0.0417
    214  CE2       26.6250   12.2650   16.5650 C.ar  225  TYR225      0.0417
    215  CZ        27.0510   11.5530   17.6660 C.ar  225  TYR225      0.1957
    216  OH        26.4480   10.3570   17.9820 O.3   225  TYR225     -0.2866
@<TRIPOS>BOND
     1    22    21    2
     2    21    20    1
     3    20    23    1
     4    20    19    1
     5    24    23    1
     6    24    25    1
     7    14    13    2
     8    19    13   am
     9    13    12    1
    10    25    26    1
    11    26    27    1
    12    12    11    1
    13    12    15    1
    14    15    16    1
    15    16    17   ar
    16    16    18   ar
    17    31    30    2
    18     4     3    2
    19    40    41    1
    20    37    35   ar
    21    37    38   ar
    22    35    33   ar
    23    30    29    1
    24     3     2    1
    25    41    42    1
    26    39    38    1
    27    38    36   ar
    28     2     1    1
    29     2     5    1
    30    28    29    1
    31    33    32    1
    32    33    34   ar
    33    32    29    1
    34    42    44   am
    35    42    43    2
    36     5     6    1
    37    44    45    1
    38    36    34   ar
    39    50    48    1
    40    49    48    1
    41     8     6   ar
    42     8    10   ar
    43     6     7   ar
    44    48    45    1
    45    45    46    1
    46    10     9   ar
    47    47    46    2
    48     7     9   ar
    49    64    63   ar
    50    46    51   am
    51   130   129    2
    52   126   125    1
    53   131   132    1
    54   131   128    1
    55   121   120    2
    56    59    60    1
    57    59    58    1
    58    59    62    1
    59   124   125    1
    60   124   123    1
    61    63    65   ar
    62    63    62    1
    63    51    52    1
    64    60    61    2
    65   129   128    1
    66   120   119    1
    67   122   123    1
    68   122   119    1
    69   128   127    1
    70    52    53    1
    71    52    55    1
    72   119   118    1
    73    53    54    2
    74    57    55    1
    75   143   142    2
    76    55    56    1
    77   136   135    2
    78   118   114   am
    79   145   144    1
    80   115   114    2
    81   142   141    1
    82   142   146   am
    83   141   144    1
    84   141   140    1
    85   114   113    1
    86   135   140   am
    87   135   134    1
    88    96    95    1
    89    96    97    1
    90   150   147    1
    91   150   151    1
    92    80    79    2
    93   117   116    1
    94   117   182    1
    95   137   138    1
    96   137   134    1
    97   137   139    1
    98   146   147    1
    99   147   148    1
   100    81    82    1
   101    81    78    1
   102    95    92    1
   103   133   134    1
   104   151   152   ar
   105   151   153   ar
   106   152   154   ar
   107    97    91    1
   108   116   113    1
   109    83    82   ar
   110   113   112    1
   111    82    84   ar
   112   182   181    1
   113    92    91    1
   114    92    93    1
   115    79    78    1
   116    79    85   am
   117    91    87   am
   118   154   155   ar
   119   153   156   ar
   120   153   155   ar
   121    78    77    1
   122   163   162    2
   123   112   108   am
   124   148   160   am
   125   148   149    2
   126   160   161    1
   127   156   158   ar
   128   155   157   ar
   129    87    86    1
   130    87    88    2
   131   174   173    1
   132   174   175    1
   133    86    85    1
   134    86    89    1
   135   173   166   am
   136    93    94    2
   137   176   175    2
   138    76    75    2
   139   175   177   am
   140   158   159   ar
   141   181   178    1
   142   157   159   ar
   143   162   161    1
   144   162   164   am
   145    77    75   am
   146   201   200    2
   147   108   109    2
   148   108   107    1
   149   177   178    1
   150   207   206    1
   151   207   208    2
   152   172   170   am
   153    89    90    1
   154    75    74    1
   155   110   111    1
   156   110   107    1
   157   166   165    1
   158   166   167    2
   159   206   209    1
   160   206   205    1
   161   178   179    1
   162   165   164    1
   163   165   168    1
   164   107   106    1
   165   200   205   am
   166   200   199    1
   167   212   214   ar
   168   212   210   ar
   169   170   171    2
   170   170   169    1
   171    71    70    1
   172   203   202    1
   173   202   199    1
   174   202   204    1
   175   214   215   ar
   176   209   210    1
   177    69    68    2
   178    74    73    1
   179   210   211   ar
   180   199   198    1
   181   169   168    1
   182   179   180    2
   183   198   196   am
   184   106   100   am
   185    68    73   am
   186    68    67    1
   187   215   216    1
   188   215   213   ar
   189    70    67    1
   190    70    72    1
   191   105   103   ar
   192   101   100    2
   193   211   213   ar
   194   100    99    1
   195   104   103   ar
   196    67    66    1
   197   103   102    1
   198   196   195    1
   199   196   197    2
   200   195   194    1
   201   102    99    1
   202   186   185    2
   203    99    98    1
   204   194   185   am
   205   185   184    1
   206   184   183    1
   207   184   187    1
   208   187   188    1
   209   188   190   ar
   210   188   189   ar
   211   190   192   ar
   212   189   191   ar
   213   192   193   ar
   214   191   193   ar
