@<TRIPOS>MOLECULE
tmp/1wvbA00.pdb
 135 124 0 0 0
SMALL
GASTEIGER

@<TRIPOS>ATOM
      1  N         15.7030   21.0760   -6.0470 N.3    97  HIS97      -0.1241
      2  CA        15.7960   21.1610   -4.5960 C.3    97  HIS97       0.1621
      3  C         17.0370   21.8720   -4.0520 C.2    97  HIS97       0.2264
      4  O         17.3460   21.7350   -2.8780 O.2    97  HIS97      -0.2867
      5  CB        15.7130   19.7590   -3.9850 C.3    97  HIS97       0.0745
      6  CG        14.9480   19.7050   -2.6970 C.ar   97  HIS97       0.0817
      7  ND1       14.5860   18.5180   -2.0940 N.ar   97  HIS97      -0.2268
      8  CD2       14.4570   20.6920   -1.9070 C.ar   97  HIS97       0.1154
      9  CE1       13.9050   18.7750   -0.9900 C.ar   97  HIS97       0.1986
     10  NE2       13.8140   20.0860   -0.8520 N.ar   97  HIS97      -0.2212
     11  N         15.7230   11.3430   -0.8670 N.3   122  HIS122     -0.1241
     12  CA        17.1450   11.6380   -0.6750 C.3   122  HIS122      0.1621
     13  C         17.4110   12.6160    0.4600 C.2   122  HIS122      0.2264
     14  O         16.6170   13.5140    0.7130 O.2   122  HIS122     -0.2867
     15  CB        17.7140   12.2210   -1.9630 C.3   122  HIS122      0.0745
     16  CG        17.3710   11.4210   -3.1790 C.ar  122  HIS122      0.0817
     17  ND1       16.5450   11.8960   -4.1730 N.ar  122  HIS122     -0.2268
     18  CD2       17.7150   10.1620   -3.5410 C.ar  122  HIS122      0.1154
     19  CE1       16.3930   10.9630   -5.0940 C.ar  122  HIS122      0.1986
     20  NE2       17.0930    9.9010   -4.7340 N.ar  122  HIS122     -0.2212
     21  N         19.9940   14.7990    0.6190 N.3   124  ASP124     -0.1239
     22  CA        20.4510   16.0790    0.0950 C.3   124  ASP124      0.1674
     23  C         21.3680   16.7760    1.0930 C.2   124  ASP124      0.2266
     24  O         21.2400   17.9820    1.3310 O.2   124  ASP124     -0.2867
     25  CB        19.2620   16.9890   -0.2010 C.3   124  ASP124      0.1410
     26  CG        18.3230   16.3970   -1.2080 C.2   124  ASP124      0.3668
     27  OD1       18.7410   15.4680   -1.9240 O.co2 124  ASP124     -0.2456
     28  OD2       17.1760   16.8680   -1.2920 O.co2 124  ASP124     -0.2456
     29  N         25.0010   16.2200    1.0480 N.3   126  ASN126     -0.1240
     30  CA        26.3780   16.0380    0.6100 C.3   126  ASN126      0.1653
     31  C         27.0190   17.4140    0.6890 C.2   126  ASN126      0.2266
     32  O         26.3360   18.4260    0.5110 O.2   126  ASN126     -0.2867
     33  CB        26.4520   15.5270   -0.8430 C.3   126  ASN126      0.1155
     34  CG        26.4270   14.0090   -0.9350 C.2   126  ASN126      0.2627
     35  OD1       26.9200   13.3190   -0.0450 O.2   126  ASN126     -0.2716
     36  ND2       25.8710   13.4850   -2.0220 N.am  126  ASN126     -0.0877
     37  N         30.2130   15.3150   -2.3610 N.3   131  THR131     -0.1203
     38  CA        29.4040   15.1120   -3.5420 C.3   131  THR131      0.1994
     39  C         30.1970   14.3270   -4.6010 C.2   131  THR131      0.2619
     40  O         31.3350   14.6800   -4.9250 O.2   131  THR131     -0.2717
     41  CB        28.9630   16.4760   -4.1180 C.3   131  THR131      0.1784
     42  OG1       27.9660   16.2640   -5.1320 O.3   131  THR131     -0.2211
     43  CG2       30.1670   17.2320   -4.7020 C.3   131  THR131      0.0376
     44  N         29.6050   13.2460   -5.1090 N.am  132  THR132     -0.1938
     45  CA        30.2430   12.4460   -6.1490 C.3   132  THR132      0.2028
     46  C         29.7480   12.9710   -7.4900 C.2   132  THR132      0.2642
     47  O         30.5370   13.4220   -8.3200 O.2   132  THR132     -0.2714
     48  CB        29.8940   10.9540   -6.0290 C.3   132  THR132      0.1808
     49  OG1       28.5060   10.8020   -5.7020 O.3   132  THR132     -0.2208
     50  CG2       30.7500   10.3070   -4.9700 C.3   132  THR132      0.0379
     51  N         28.4390   12.9200   -7.7040 N.am  133  SER133     -0.1949
     52  CA        27.8820   13.4340   -8.9450 C.3   133  SER133      0.1924
     53  C         28.3080   14.8990   -9.0890 C.2   133  SER133      0.2314
     54  O         28.6420   15.3500  -10.1880 O.2   133  SER133     -0.2863
     55  CB        26.3540   13.3240   -8.9340 C.3   133  SER133      0.2116
     56  OG        25.7830   14.1330   -7.9180 O.3   133  SER133     -0.2180
     57  N         26.3330   17.5920   -8.1180 N.3   135  ASN135     -0.1240
     58  CA        25.2020   18.4780   -8.3380 C.3   135  ASN135      0.1653
     59  C         24.8080   19.1330   -7.0210 C.2   135  ASN135      0.2266
     60  O         24.8390   18.4940   -5.9640 O.2   135  ASN135     -0.2867
     61  CB        24.0200   17.6910   -8.9220 C.3   135  ASN135      0.1155
     62  CG        24.3390   17.0870  -10.2810 C.2   135  ASN135      0.2627
     63  OD1       24.6980   17.8030  -11.2170 O.2   135  ASN135     -0.2716
     64  ND2       24.2080   15.7700  -10.3950 N.am  135  ASN135     -0.0877
     65  N         21.8100   20.2450   -6.2040 N.3   137  HIS137     -0.1226
     66  CA        20.4480   19.8850   -5.7890 C.3   137  HIS137      0.1752
     67  C         20.4460   18.7680   -4.7460 C.2   137  HIS137      0.2596
     68  O         19.4170   18.4620   -4.1410 O.2   137  HIS137     -0.2718
     69  CB        19.5640   19.5150   -7.0100 C.3   137  HIS137      0.0759
     70  CG        19.7840   18.1320   -7.5600 C.ar  137  HIS137      0.0818
     71  ND1       18.7770   17.4130   -8.1680 N.ar  137  HIS137     -0.2268
     72  CD2       20.8820   17.3380   -7.5920 C.ar  137  HIS137      0.1154
     73  CE1       19.2430   16.2360   -8.5440 C.ar  137  HIS137      0.1986
     74  NE2       20.5170   16.1650   -8.2060 N.ar  137  HIS137     -0.2212
     75  N         21.6170   18.1810   -4.5200 N.am  138  GLY138     -0.1957
     76  CA        21.7360   17.1260   -3.5300 C.3   138  GLY138      0.1869
     77  C         22.6560   17.4720   -2.3670 C.2   138  GLY138      0.2309
     78  O         23.2280   16.5700   -1.7490 O.2   138  GLY138     -0.2863
     79  N         17.5400    6.3630   -0.6810 N.3   177  ASP177     -0.1239
     80  CA        18.7410    6.4190   -1.5190 C.3   177  ASP177      0.1674
     81  C         19.7260    7.4240   -0.9540 C.2   177  ASP177      0.2266
     82  O         19.8800    8.5340   -1.4770 O.2   177  ASP177     -0.2867
     83  CB        18.4250    6.8350   -2.9540 C.3   177  ASP177      0.1410
     84  CG        19.6550    6.7720   -3.8520 C.2   177  ASP177      0.3668
     85  OD1       20.0530    5.6540   -4.2400 O.co2 177  ASP177     -0.2456
     86  OD2       20.2410    7.8330   -4.1520 O.co2 177  ASP177     -0.2456
     87  N         23.5860    8.4240    0.0340 N.3   179  ASP179     -0.1239
     88  CA        24.9790    8.1710   -0.3180 C.3   179  ASP179      0.1674
     89  C         25.7730    7.7710    0.9270 C.2   179  ASP179      0.2266
     90  O         25.4800    8.2330    2.0330 O.2   179  ASP179     -0.2867
     91  CB        25.6050    9.4230   -0.9460 C.3   179  ASP179      0.1410
     92  CG        24.9400    9.8270   -2.2570 C.2   179  ASP179      0.3668
     93  OD1       24.0480    9.0990   -2.7440 O.co2 179  ASP179     -0.2456
     94  OD2       25.3170   10.8840   -2.8090 O.co2 179  ASP179     -0.2456
     95  N         26.5530   10.4820    3.0630 N.3   182  GLU182     -0.1245
     96  CA        25.3560   11.0960    3.6370 C.3   182  GLU182      0.1567
     97  C         24.9070   10.2620    4.8170 C.2   182  GLU182      0.2260
     98  O         24.5010   10.7990    5.8390 O.2   182  GLU182     -0.2867
     99  CB        24.2150   11.1800    2.6210 C.3   182  GLU182      0.0388
    100  CG        24.3810   12.2500    1.5510 C.3   182  GLU182      0.1160
    101  CD        23.2200   12.2690    0.5670 C.2   182  GLU182      0.3649
    102  OE1       22.7240   11.1850    0.2010 O.co2 182  GLU182     -0.2457
    103  OE2       22.8080   13.3620    0.1410 O.co2 182  GLU182     -0.2457
    104  N         10.1200   17.3550   -1.7240 N.3   228  ASP228     -0.1239
    105  CA        10.6690   16.8850   -2.9810 C.3   228  ASP228      0.1674
    106  C          9.7240   15.8370   -3.5480 C.2   228  ASP228      0.2266
    107  O          9.4700   14.7990   -2.9310 O.2   228  ASP228     -0.2867
    108  CB        12.0350   16.2570   -2.7830 C.3   228  ASP228      0.1410
    109  CG        12.6890   15.8970   -4.0930 C.2   228  ASP228      0.3668
    110  OD1       11.9660   15.4880   -5.0340 O.co2 228  ASP228     -0.2456
    111  OD2       13.9290   16.0160   -4.1800 O.co2 228  ASP228     -0.2456
    112  N         10.0840   13.5710   -5.5280 N.3   230  ASP230     -0.1239
    113  CA        10.5970   12.2060   -5.6440 C.3   230  ASP230      0.1674
    114  C         10.5680   11.4830   -4.2980 C.2   230  ASP230      0.2266
    115  O         11.1740   10.4170   -4.1280 O.2   230  ASP230     -0.2867
    116  CB        12.0170   12.1830   -6.2330 C.3   230  ASP230      0.1410
    117  CG        13.0440   12.8610   -5.3430 C.2   230  ASP230      0.3668
    118  OD1       12.7880   13.0050   -4.1270 O.co2 230  ASP230     -0.2456
    119  OD2       14.1220   13.2320   -5.8700 O.co2 230  ASP230     -0.2456
    120  N         15.2170   12.5210  -10.3600 N.3   242  THR242     -0.1218
    121  CA        15.8880   11.4090   -9.6910 C.3   242  THR242      0.1862
    122  C         14.8910   10.5860   -8.8420 C.2   242  THR242      0.2287
    123  O         14.8660   10.6900   -7.6060 O.2   242  THR242     -0.2866
    124  CB        17.0170   11.9450   -8.7670 C.3   242  THR242      0.1770
    125  OG1       17.5150   13.1830   -9.2860 O.3   242  THR242     -0.2211
    126  CG2       18.1650   10.9490   -8.6900 C.3   242  THR242      0.0375
    127  N         11.5450   19.6440   -7.3050 N.3   273  GLU273     -0.1245
    128  CA        11.9030   18.5620   -8.2040 C.3   273  GLU273      0.1567
    129  C         10.9190   18.0130   -9.2300 C.2   273  GLU273      0.2260
    130  O         11.0580   16.8700   -9.6540 O.2   273  GLU273     -0.2867
    131  CB        12.4820   17.4060   -7.3850 C.3   273  GLU273      0.0388
    132  CG        13.8210   17.7320   -6.7240 C.3   273  GLU273      0.1160
    133  CD        14.9020   18.1230   -7.7340 C.2   273  GLU273      0.3649
    134  OE1       14.9360   17.5170   -8.8290 O.co2 273  GLU273     -0.2457
    135  OE2       15.7280   19.0170   -7.4350 O.co2 273  GLU273     -0.2457
@<TRIPOS>BOND
     1    63    62    2
     2    64    62   am
     3   120   121    1
     4    62    61    1
     5    54    53    2
     6   121   122    1
     7   121   124    1
     8   130   129    2
     9   125   124    1
    10   129   128    1
    11    53    52    1
    12    52    55    1
    13    52    51    1
    14    55    56    1
    15    61    58    1
    16   122   123    2
    17   134   133   ar
    18   124   126    1
    19    73    74   ar
    20    73    71   ar
    21    58    57    1
    22    58    59    1
    23    47    46    2
    24    74    72   ar
    25   128   131    1
    26   128   127    1
    27    71    70   ar
    28   133   135   ar
    29   133   132    1
    30    51    46   am
    31    72    70   ar
    32    70    69    1
    33    46    45    1
    34   131   132    1
    35    59    60    2
    36    69    66    1
    37   116   113    1
    38   116   117    1
    39    65    66    1
    40    45    48    1
    41    45    44    1
    42     1     2    1
    43    48    49    1
    44    48    50    1
    45   119   117   ar
    46    66    67    1
    47   113   112    1
    48   113   114    1
    49   117   118   ar
    50    42    41    1
    51    44    39   am
    52    19    20   ar
    53    19    17   ar
    54   110   109   ar
    55    40    39    2
    56    67    75   am
    57    67    68    2
    58    20    18   ar
    59    43    41    1
    60    39    38    1
    61     2     3    1
    62     2     5    1
    63    75    76    1
    64   114   115    2
    65    85    84   ar
    66   111   109   ar
    67    17    16   ar
    68    86    84   ar
    69    41    38    1
    70   109   108    1
    71     3     4    2
    72     5     6    1
    73    84    83    1
    74   106   105    1
    75   106   107    2
    76    38    37    1
    77    18    16   ar
    78    76    77    1
    79    16    15    1
    80   105   108    1
    81   105   104    1
    82    83    80    1
    83    94    92   ar
    84    93    92   ar
    85     6     7   ar
    86     6     8   ar
    87    77    78    2
    88    92    91    1
    89     7     9   ar
    90    36    34   am
    91    15    12    1
    92    27    26   ar
    93     8    10   ar
    94    80    81    1
    95    80    79    1
    96    82    81    2
    97    28    26   ar
    98    26    25    1
    99     9    10   ar
   100    91    88    1
   101    34    33    1
   102    34    35    2
   103    11    12    1
   104    33    30    1
   105    12    13    1
   106    88    87    1
   107    88    89    1
   108    25    22    1
   109    22    21    1
   110    22    23    1
   111   103   101   ar
   112   102   101   ar
   113    13    14    2
   114    32    31    2
   115   101   100    1
   116    30    31    1
   117    30    29    1
   118    89    90    2
   119    23    24    2
   120   100    99    1
   121    99    96    1
   122    95    96    1
   123    96    97    1
   124    97    98    2
