@<TRIPOS>MOLECULE
tmp/1wvcA00.pdb
 131 127 0 0 0
SMALL
GASTEIGER

@<TRIPOS>ATOM
      1  N        -13.9810   31.7890   59.0590 N.3     7  LEU7       -0.1231
      2  CA       -12.8360   31.7090   58.1500 C.3     7  LEU7        0.1693
      3  C        -12.2940   33.0880   57.8190 C.2     7  LEU7        0.2592
      4  O        -13.0220   33.9980   57.4760 O.2     7  LEU7       -0.2718
      5  CB       -13.1900   31.0030   56.8120 C.3     7  LEU7        0.0284
      6  CG       -13.5980   29.5290   56.9880 C.3     7  LEU7        0.0019
      7  CD1      -14.0530   28.9140   55.6680 C.3     7  LEU7        0.0001
      8  CD2      -12.4580   28.6760   57.5620 C.3     7  LEU7        0.0001
      9  N        -11.0090   33.2590   57.9190 N.am    8  ALA8       -0.1966
     10  CA       -10.4790   34.5410   57.5900 C.3     8  ALA8        0.1728
     11  C         -9.0860   34.3840   56.9990 C.2     8  ALA8        0.2617
     12  O         -8.3230   35.3200   56.9200 O.2     8  ALA8       -0.2715
     13  CB       -10.4920   35.3930   58.8330 C.3     8  ALA8        0.0334
     14  N         -8.7590   33.1660   56.5610 N.am    9  GLY9       -0.1940
     15  CA        -7.4470   32.8530   56.0060 C.3     9  GLY9        0.2014
     16  C         -7.1980   33.0160   54.5150 C.2     9  GLY9        0.2639
     17  O         -6.0680   32.8450   54.0710 O.2     9  GLY9       -0.2714
     18  N         -8.2030   33.3460   53.7210 N.am   10  GLY10      -0.1939
     19  CA        -7.9710   33.4960   52.2880 C.3    10  GLY10       0.2014
     20  C         -7.0170   34.6400   51.8910 C.2    10  GLY10       0.2639
     21  O         -6.6910   35.5260   52.6970 O.2    10  GLY10      -0.2714
     22  N         -6.6000   34.5780   50.6080 N.am   11  LEU11      -0.1963
     23  CA        -5.7100   35.5180   49.8960 C.3    11  LEU11       0.1728
     24  C         -6.3870   36.8080   49.4070 C.2    11  LEU11       0.2617
     25  O         -5.7460   37.8520   49.1910 O.2    11  LEU11      -0.2715
     26  CB        -5.0930   34.8540   48.6560 C.3    11  LEU11       0.0311
     27  CG        -4.2930   33.6070   48.9840 C.3    11  LEU11       0.0022
     28  CD1       -3.4280   33.2180   47.7860 C.3    11  LEU11       0.0001
     29  CD2       -3.4420   33.8220   50.2320 C.3    11  LEU11       0.0001
     30  N         -7.6970   36.7240   49.2030 N.am   12  GLY12      -0.1940
     31  CA        -8.4850   37.8540   48.7530 C.3    12  GLY12       0.2014
     32  C         -8.1150   38.3650   47.3750 C.2    12  GLY12       0.2640
     33  O         -8.3550   39.5370   47.0850 O.2    12  GLY12      -0.2714
     34  N         -7.5530   37.4690   46.5490 N.am   13  THR13      -0.1936
     35  CA        -7.1310   37.7840   45.1940 C.3    13  THR13       0.2028
     36  C         -8.0690   38.7050   44.4480 C.2    13  THR13       0.2642
     37  O         -7.6400   39.7140   43.8960 O.2    13  THR13      -0.2714
     38  CB        -6.6720   36.5860   44.3240 C.3    13  THR13       0.1808
     39  OG1       -7.7260   36.0410   43.5590 O.3    13  THR13      -0.2208
     40  CG2       -6.0200   35.5090   45.1640 C.3    13  THR13       0.0379
     41  N         -9.3540   38.3840   44.4280 N.am   14  ARG14      -0.1977
     42  CA       -10.2620   39.2680   43.7070 C.3    14  ARG14       0.1597
     43  C        -10.5370   40.6450   44.3350 C.2    14  ARG14       0.2287
     44  O        -11.4220   41.3750   43.8830 O.2    14  ARG14      -0.2864
     45  CB       -11.5510   38.5960   43.2590 C.3    14  ARG14       0.0334
     46  CG       -11.4640   37.0820   43.1660 C.3    14  ARG14       0.0492
     47  CD       -12.8300   36.4120   43.3230 C.3    14  ARG14       0.2205
     48  NE       -12.9720   35.5610   44.5190 N.pl3  14  ARG14      -0.0865
     49  CZ       -14.1000   34.9540   44.9140 C.cat  14  ARG14       0.5346
     50  NH1      -15.2540   35.0570   44.2530 N.pl3  14  ARG14       0.1354
     51  NH2      -14.0700   34.2180   46.0290 N.pl3  14  ARG14       0.1354
     52  N         -8.8650   40.1570   53.5480 N.3    24  LYS24      -0.1231
     53  CA       -10.1950   40.5340   53.0920 C.3    24  LYS24       0.1681
     54  C        -11.3080   40.7300   54.1570 C.2    24  LYS24       0.2471
     55  O        -12.1250   41.6090   54.0160 O.2    24  LYS24      -0.2730
     56  CB       -10.5930   39.7910   51.8270 C.3    24  LYS24       0.0284
     57  CG       -12.0770   39.7900   51.5320 C.3    24  LYS24       0.0035
     58  CD       -12.3670   39.0680   50.2200 C.3    24  LYS24       0.0206
     59  CE       -13.2690   37.8450   50.3360 C.3    24  LYS24       0.1093
     60  NZ       -13.7740   37.4230   49.0240 N.3    24  LYS24      -0.1314
     61  N        -11.3770   39.9570   55.2530 N.am   25  PRO25      -0.2506
     62  CA       -12.4440   40.2110   56.1950 C.3    25  PRO25       0.1487
     63  C        -12.1900   41.4370   57.0670 C.2    25  PRO25       0.2276
     64  O        -13.0730   41.9310   57.7770 O.2    25  PRO25      -0.2865
     65  CB       -12.6160   38.9500   57.0310 C.3    25  PRO25       0.0556
     66  CG       -11.6180   37.9300   56.5330 C.2    25  PRO25      -0.0078
     67  CD       -10.7930   38.6090   55.4710 C.2    25  PRO25       0.0634
     68  N         -3.5290   26.4420   54.2880 N.3   105  SER105     -0.1202
     69  CA        -4.6950   25.5850   54.4950 C.3   105  SER105      0.2020
     70  C         -5.9290   26.0200   53.7450 C.2   105  SER105      0.2619
     71  O         -6.0990   27.2070   53.4180 O.2   105  SER105     -0.2717
     72  CB        -5.0850   25.4240   55.9590 C.3   105  SER105      0.2103
     73  OG        -3.9650   25.6240   56.7830 O.3   105  SER105     -0.2182
     74  N         -6.7860   25.0370   53.4790 N.am  106  MET106     -0.1965
     75  CA        -8.0410   25.2950   52.7910 C.3   106  MET106      0.1736
     76  C         -9.0840   25.3800   53.8720 C.2   106  MET106      0.2617
     77  O         -8.7370   25.3060   55.0600 O.2   106  MET106     -0.2715
     78  CB        -8.4880   24.2970   51.6930 C.3   106  MET106      0.0427
     79  CG        -7.4110   23.8150   50.7340 C.3   106  MET106      0.0599
     80  SD        -6.5650   25.1600   49.8710 S.3   106  MET106     -0.1393
     81  CE        -7.6910   25.4880   48.4950 C.3   106  MET106      0.0692
     82  N        -10.3320   25.5410   53.4280 N.am  107  THR107     -0.1951
     83  CA       -11.4930   25.6650   54.2890 C.3   107  THR107      0.1897
     84  C        -11.6840   24.5230   55.2610 C.2   107  THR107      0.2313
     85  O        -11.9250   24.7680   56.4550 O.2   107  THR107     -0.2863
     86  CB       -12.7530   26.0080   53.4800 C.3   107  THR107      0.1794
     87  OG1      -13.0450   24.9920   52.5150 O.3   107  THR107     -0.2208
     88  CG2      -12.4460   27.3310   52.7920 C.3   107  THR107      0.0378
     89  N         -8.5260   24.1870   57.7170 N.3   110  ARG110     -0.1245
     90  CA        -8.6010   25.2650   58.6960 C.3   110  ARG110      0.1563
     91  C         -9.5940   24.9270   59.7910 C.2   110  ARG110      0.2260
     92  O         -9.3010   24.9790   60.9830 O.2   110  ARG110     -0.2867
     93  CB        -9.0930   26.5250   58.0330 C.3   110  ARG110      0.0307
     94  CG        -8.0670   27.6270   57.9100 C.3   110  ARG110      0.0489
     95  CD        -8.4390   28.6430   56.8390 C.3   110  ARG110      0.2205
     96  NE        -7.3370   28.8770   55.9180 N.pl3 110  ARG110     -0.0865
     97  CZ        -6.0820   29.1090   56.2930 C.cat 110  ARG110      0.5346
     98  NH1       -5.7460   29.1550   57.5750 N.pl3 110  ARG110      0.1354
     99  NH2       -5.1360   29.3100   55.3670 N.pl3 110  ARG110      0.1354
    100  N        -18.3750   31.9830   56.5140 N.3   128  TYR128     -0.1227
    101  CA       -17.3270   32.7210   55.8300 C.3   128  TYR128      0.1736
    102  C        -17.1870   34.1440   56.3530 C.2   128  TYR128      0.2596
    103  O        -18.1500   34.7910   56.8240 O.2   128  TYR128     -0.2718
    104  CB       -17.5830   32.7770   54.3300 C.3   128  TYR128      0.0548
    105  CG       -17.9200   31.4360   53.7770 C.ar  128  TYR128     -0.0200
    106  CD1      -19.2430   31.0600   53.5300 C.ar  128  TYR128     -0.0009
    107  CD2      -16.8980   30.5290   53.5160 C.ar  128  TYR128     -0.0009
    108  CE1      -19.5480   29.8040   53.0040 C.ar  128  TYR128      0.0417
    109  CE2      -17.1860   29.2740   52.9820 C.ar  128  TYR128      0.0417
    110  CZ       -18.5100   28.9130   52.7300 C.ar  128  TYR128      0.1957
    111  OH       -18.7710   27.6710   52.2160 O.3   128  TYR128     -0.2866
    112  N        -15.9630   34.6480   56.2550 N.am  129  GLY129     -0.1942
    113  CA       -15.7090   36.0070   56.7170 C.3   129  GLY129      0.2014
    114  C        -16.0160   37.0730   55.6630 C.2   129  GLY129      0.2638
    115  O        -15.6400   38.2330   55.8650 O.2   129  GLY129     -0.2714
    116  N        -16.6950   36.6370   54.5650 N.am  130  ASP130     -0.1971
    117  CA       -17.0870   37.4540   53.4140 C.3   130  ASP130      0.1709
    118  C        -18.5800   37.6930   53.1930 C.2   130  ASP130      0.2293
    119  O        -18.9340   38.3800   52.2330 O.2   130  ASP130     -0.2864
    120  CB       -16.3340   37.1140   52.0870 C.3   130  ASP130      0.1436
    121  CG       -16.7170   35.8550   51.3280 C.2   130  ASP130      0.3671
    122  OD1      -17.3650   34.9260   51.7900 O.co2 130  ASP130     -0.2456
    123  OD2      -16.2570   35.8630   50.0930 O.co2 130  ASP130     -0.2456
    124  N        -16.4830   39.9790   47.5370 N.3   231  ASP231     -0.1239
    125  CA       -15.3550   39.3510   46.8830 C.3   231  ASP231      0.1674
    126  C        -14.6060   40.3840   46.0400 C.2   231  ASP231      0.2266
    127  O        -13.4170   40.2460   45.7610 O.2   231  ASP231     -0.2867
    128  CB       -15.7610   38.0790   46.0860 C.3   231  ASP231      0.1410
    129  CG       -16.4190   37.0170   46.9440 C.2   231  ASP231      0.3668
    130  OD1      -15.8850   36.4180   47.8660 O.co2 231  ASP231     -0.2456
    131  OD2      -17.6400   36.7830   46.5860 O.co2 231  ASP231     -0.2456
@<TRIPOS>BOND
     1    46    45    1
     2    46    47    1
     3    45    42    1
     4    47    48    1
     5    39    38    1
     6    42    43    1
     7    42    41    1
     8    44    43    2
     9    37    36    2
    10    50    49    1
    11    38    40    1
    12    38    35    1
    13    41    36   am
    14    36    35    1
    15    48    49    2
    16    49    51    1
    17    35    34    1
    18   127   126    2
    19   126   125    1
    20   128   125    1
    21   128   129    1
    22    34    32   am
    23   131   129   ar
    24   125   124    1
    25   129   130   ar
    26    33    32    2
    27    32    31    1
    28    28    27    1
    29    81    80    1
    30    26    27    1
    31    26    23    1
    32    31    30    1
    33    27    29    1
    34    60    59    1
    35    25    24    2
    36    30    24   am
    37    24    23    1
    38    80    79    1
    39    23    22    1
    40   123   121   ar
    41    58    59    1
    42    58    57    1
    43    22    20   am
    44    79    78    1
    45   121   122   ar
    46   121   120    1
    47    57    56    1
    48    78    75    1
    49    56    53    1
    50    20    19    1
    51    20    21    2
    52   120   117    1
    53   111   110    1
    54   119   118    2
    55    19    18    1
    56    87    86    1
    57   110   109   ar
    58   110   108   ar
    59    75    74    1
    60    75    76    1
    61    88    86    1
    62   109   107   ar
    63   108   106   ar
    64    53    52    1
    65    53    54    1
    66   118   117    1
    67   117   116    1
    68    71    70    2
    69    82    76   am
    70    82    83    1
    71    74    70   am
    72    86    83    1
    73   107   105   ar
    74   106   105   ar
    75    18    16   am
    76    70    69    1
    77   105   104    1
    78    76    77    2
    79    55    54    2
    80    17    16    2
    81    54    61   am
    82    68    69    1
    83    83    84    1
    84   104   101    1
    85    69    72    1
    86    16    15    1
    87   116   114   am
    88    61    67    1
    89    61    62    1
    90    84    85    2
    91    99    97    1
    92    67    66    2
    93   114   115    2
    94   114   113    1
    95     7     6    1
    96   101   102    1
    97   101   100    1
    98    96    97    2
    99    96    95    1
   100    72    73    1
   101    15    14    1
   102    62    65    1
   103    62    63    1
   104   112   102   am
   105   112   113    1
   106    97    98    1
   107   102   103    2
   108    66    65    1
   109    14    11   am
   110     5     6    1
   111     5     2    1
   112    95    94    1
   113    12    11    2
   114     6     8    1
   115    11    10    1
   116    63    64    2
   117     4     3    2
   118    10     9    1
   119    10    13    1
   120    89    90    1
   121     3     9   am
   122     3     2    1
   123    94    93    1
   124    93    90    1
   125     2     1    1
   126    90    91    1
   127    91    92    2
