@<TRIPOS>MOLECULE
tmp/1wveB00.pdb
 206 200 0 0 0
SMALL
GASTEIGER

@<TRIPOS>ATOM
      1  N        -35.8330    7.6720    2.9910 N.3     9  LEU9       -0.1245
      2  CA       -34.9630    6.8540    2.1420 C.3     9  LEU9        0.1561
      3  C        -34.3720    7.7520    1.0610 C.2     9  LEU9        0.2260
      4  O        -33.1750    7.6960    0.7650 O.2     9  LEU9       -0.2867
      5  CB       -35.7410    5.7200    1.4690 C.3     9  LEU9        0.0270
      6  CG       -34.9300    4.9840    0.3860 C.3     9  LEU9        0.0019
      7  CD1      -33.7010    4.3300    1.0330 C.3     9  LEU9        0.0001
      8  CD2      -35.8020    3.9290   -0.2960 C.3     9  LEU9        0.0001
      9  N        -30.4110    8.2480    0.9390 N.3    13  VAL13      -0.1231
     10  CA       -29.7810    7.4480   -0.1050 C.3    13  VAL13       0.1692
     11  C        -29.9460    8.0030   -1.5230 C.2    13  VAL13       0.2592
     12  O        -29.0630    8.6890   -2.0430 O.2    13  VAL13      -0.2718
     13  CB       -30.3300    5.9830   -0.0720 C.3    13  VAL13       0.0266
     14  CG1      -29.6470    5.1260   -1.1270 C.3    13  VAL13       0.0020
     15  CG2      -30.1170    5.3830    1.3000 C.3    13  VAL13       0.0020
     16  N        -31.0930    7.7270   -2.1350 N.am   14  CYS14      -0.1970
     17  CA       -31.3560    8.1420   -3.5140 C.3    14  CYS14       0.1712
     18  C        -31.0960    9.6040   -3.8480 C.2    14  CYS14       0.2296
     19  O        -30.5400    9.9010   -4.8970 O.2    14  CYS14      -0.2864
     20  CB       -32.8040    7.8150   -3.9090 C.3    14  CYS14       0.0983
     21  SG       -33.4830    6.3070   -3.1640 S.3    14  CYS14      -0.0798
     22  N        -28.9800   11.7680   -2.7140 N.3    16  HIS16      -0.1226
     23  CA       -27.5730   12.1660   -2.7870 C.3    16  HIS16       0.1752
     24  C        -27.0930   12.1370   -4.2230 C.2    16  HIS16       0.2596
     25  O        -26.0590   12.7070   -4.5570 O.2    16  HIS16      -0.2718
     26  CB       -26.7000   11.2260   -1.9450 C.3    16  HIS16       0.0759
     27  CG       -26.8030   11.4690   -0.4730 C.ar   16  HIS16       0.0818
     28  ND1      -26.4300   12.6600    0.1090 N.ar   16  HIS16      -0.2268
     29  CD2      -27.2320   10.6730    0.5360 C.ar   16  HIS16       0.1154
     30  CE1      -26.6260   12.5900    1.4150 C.ar   16  HIS16       0.1986
     31  NE2      -27.1110   11.3950    1.7000 N.ar   16  HIS16      -0.2212
     32  N        -27.8430   11.4500   -5.0750 N.am   17  CYS17      -0.1956
     33  CA       -27.4980   11.3680   -6.4870 C.3    17  CYS17       0.1843
     34  C        -28.5800   11.9550   -7.3720 C.2    17  CYS17       0.2625
     35  O        -28.2820   12.6070   -8.3710 O.2    17  CYS17      -0.2714
     36  CB       -27.2840    9.9160   -6.9130 C.3    17  CYS17       0.0997
     37  SG       -25.7730    9.1560   -6.2530 S.3    17  CYS17      -0.0797
     38  N        -29.8350   11.7180   -6.9900 N.am   18  HIS18      -0.1973
     39  CA       -30.9850   12.1530   -7.7810 C.3    18  HIS18       0.1656
     40  C        -31.6040   13.5390   -7.5470 C.2    18  HIS18       0.2291
     41  O        -32.3250   14.0330   -8.4160 O.2    18  HIS18      -0.2864
     42  CB       -32.0900   11.0800   -7.6880 C.3    18  HIS18       0.0771
     43  CG       -31.8100    9.8550   -8.5070 C.ar   18  HIS18       0.0820
     44  ND1      -31.9720    9.8710   -9.8640 N.ar   18  HIS18      -0.2267
     45  CD2      -31.3650    8.7290   -7.8940 C.ar   18  HIS18       0.1154
     46  CE1      -31.5840    8.5900  -10.1910 C.ar   18  HIS18       0.1986
     47  NE2      -31.2060    7.8710   -9.0230 N.ar   18  HIS18      -0.2212
     48  N        -26.3950   13.7200  -10.3580 N.3    24  VAL24      -0.1231
     49  CA       -25.6170   12.5330  -10.7170 C.3    24  VAL24       0.1692
     50  C        -26.5360   11.5960  -11.4980 C.2    24  VAL24       0.2593
     51  O        -26.1410   10.9980  -12.5020 O.2    24  VAL24      -0.2718
     52  CB       -25.0720   11.8020   -9.4640 C.3    24  VAL24       0.0266
     53  CG1      -24.6040   10.3920   -9.8320 C.3    24  VAL24       0.0020
     54  CG2      -23.9120   12.6050   -8.8730 C.3    24  VAL24       0.0020
     55  N        -27.7670   11.4790  -11.0230 N.am   25  GLY25      -0.1943
     56  CA       -28.7480   10.6390  -11.6830 C.3    25  GLY25       0.1998
     57  C        -29.8930   11.5180  -12.1500 C.2    25  GLY25       0.2481
     58  O        -30.0100   12.6550  -11.6990 O.2    25  GLY25      -0.2729
     59  N        -30.7640   11.0270  -13.0420 N.am   26  PRO26      -0.2715
     60  CA       -31.8820   11.8530  -13.5180 C.3    26  PRO26       0.1536
     61  C        -32.9070   12.1950  -12.4430 C.2    26  PRO26       0.2598
     62  O        -33.0060   11.5120  -11.4110 O.2    26  PRO26      -0.2715
     63  CB       -32.4730   11.0150  -14.6550 C.3    26  PRO26       0.0310
     64  CG       -32.1620    9.5940  -14.2240 C.3    26  PRO26       0.0237
     65  CD       -30.7510    9.7070  -13.6940 C.3    26  PRO26       0.0939
     66  N        -33.6580   13.2670  -12.6770 N.am   27  VAL27      -0.1964
     67  CA       -34.6860   13.6960  -11.7380 C.3    27  VAL27       0.1727
     68  C        -35.7770   12.6250  -11.6840 C.2    27  VAL27       0.2616
     69  O        -36.2080   12.1170  -12.7220 O.2    27  VAL27      -0.2715
     70  CB       -35.3070   15.0490  -12.1660 C.3    27  VAL27       0.0290
     71  CG1      -36.4780   15.4000  -11.2650 C.3    27  VAL27       0.0023
     72  CG2      -34.2640   16.1460  -12.0700 C.3    27  VAL27       0.0023
     73  N        -36.2010   12.2770  -10.4710 N.am   28  LEU28      -0.1977
     74  CA       -37.2360   11.2710  -10.2700 C.3    28  LEU28       0.1596
     75  C        -38.4860   11.9050   -9.6640 C.2    28  LEU28       0.2287
     76  O        -39.5540   11.2970   -9.6540 O.2    28  LEU28      -0.2864
     77  CB       -36.7340   10.1810   -9.3110 C.3    28  LEU28       0.0297
     78  CG       -35.3660    9.5490   -9.5860 C.3    28  LEU28       0.0022
     79  CD1      -35.0500    8.5550   -8.4570 C.3    28  LEU28       0.0001
     80  CD2      -35.3630    8.8530  -10.9380 C.3    28  LEU28       0.0001
     81  N        -43.0130    7.7060  -12.0380 N.3    33  LEU33      -0.1245
     82  CA       -42.3260    6.4280  -12.2420 C.3    33  LEU33       0.1561
     83  C        -43.0350    5.3140  -11.4590 C.2    33  LEU33       0.2260
     84  O        -43.2410    5.4220  -10.2510 O.2    33  LEU33      -0.2867
     85  CB       -40.8590    6.5340  -11.8000 C.3    33  LEU33       0.0270
     86  CG       -40.0150    7.5790  -12.5410 C.3    33  LEU33       0.0019
     87  CD1      -38.6620    7.7410  -11.8590 C.3    33  LEU33       0.0001
     88  CD2      -39.8290    7.1580  -13.9930 C.3    33  LEU33       0.0001
     89  N        -41.0030   -0.3280  -11.8440 N.3    37  TYR37      -0.1227
     90  CA       -39.7920    0.1540  -12.5200 C.3    37  TYR37       0.1736
     91  C        -38.7060    0.5380  -11.5060 C.2    37  TYR37       0.2595
     92  O        -37.5380    0.2090  -11.6840 O.2    37  TYR37      -0.2718
     93  CB       -40.1110    1.3690  -13.3920 C.3    37  TYR37       0.0548
     94  CG       -38.9190    1.8900  -14.1640 C.ar   37  TYR37      -0.0200
     95  CD1      -38.2850    1.0900  -15.1180 C.ar   37  TYR37      -0.0009
     96  CD2      -38.4340    3.1820  -13.9580 C.ar   37  TYR37      -0.0009
     97  CE1      -37.1960    1.5620  -15.8550 C.ar   37  TYR37       0.0417
     98  CE2      -37.3380    3.6700  -14.6910 C.ar   37  TYR37       0.0417
     99  CZ       -36.7310    2.8520  -15.6340 C.ar   37  TYR37       0.1957
    100  OH       -35.6610    3.3050  -16.3720 O.3    37  TYR37      -0.2866
    101  N        -39.0980    1.2490  -10.4590 N.am   38  ILE38      -0.1980
    102  CA       -38.1640    1.6460   -9.4160 C.3    38  ILE38       0.1595
    103  C        -37.5320    0.4130   -8.7510 C.2    38  ILE38       0.2287
    104  O        -36.3160    0.3700   -8.5570 O.2    38  ILE38      -0.2864
    105  CB       -38.8770    2.5210   -8.3710 C.3    38  ILE38       0.0276
    106  CG1      -39.2050    3.8830   -9.0080 C.3    38  ILE38       0.0022
    107  CG2      -38.0090    2.6780   -7.1320 C.3    38  ILE38       0.0022
    108  CD1      -40.0550    4.7880   -8.1660 C.3    38  ILE38       0.0001
    109  N        -35.0250   -1.1590  -11.2020 N.3    41  ILE41      -0.1231
    110  CA       -33.7850   -0.3800  -11.3270 C.3    41  ILE41       0.1692
    111  C        -32.9030   -0.5200  -10.0820 C.2    41  ILE41       0.2591
    112  O        -31.6870   -0.6820  -10.1880 O.2    41  ILE41      -0.2718
    113  CB       -34.0800    1.1270  -11.5560 C.3    41  ILE41       0.0266
    114  CG1      -34.6750    1.3450  -12.9580 C.3    41  ILE41       0.0019
    115  CG2      -32.7870    1.9600  -11.3740 C.3    41  ILE41       0.0020
    116  CD1      -33.6890    1.1210  -14.1090 C.3    41  ILE41       0.0001
    117  N        -33.5180   -0.4680   -8.9040 N.am   42  VAL42      -0.1980
    118  CA       -32.7590   -0.5750   -7.6610 C.3    42  VAL42       0.1595
    119  C        -32.1810   -1.9780   -7.4470 C.2    42  VAL42       0.2287
    120  O        -31.0330   -2.1100   -7.0310 O.2    42  VAL42      -0.2864
    121  CB       -33.6320   -0.1780   -6.4470 C.3    42  VAL42       0.0276
    122  CG1      -32.8680   -0.3970   -5.1380 C.3    42  VAL42       0.0022
    123  CG2      -34.0170    1.3030   -6.5640 C.3    42  VAL42       0.0022
    124  N        -28.3180   -0.0640  -12.7130 N.3    46  PHE46      -0.1227
    125  CA       -28.5110    0.3270  -14.1060 C.3    46  PHE46       0.1736
    126  C        -27.3510    1.1560  -14.6120 C.2    46  PHE46       0.2595
    127  O        -27.2580    2.3490  -14.3390 O.2    46  PHE46      -0.2718
    128  CB       -29.8220    1.1040  -14.2850 C.3    46  PHE46       0.0547
    129  CG       -30.1140    1.4670  -15.7170 C.ar   46  PHE46      -0.0202
    130  CD1      -30.0180    0.5070  -16.7210 C.ar   46  PHE46      -0.0042
    131  CD2      -30.4500    2.7700  -16.0680 C.ar   46  PHE46      -0.0042
    132  CE1      -30.2460    0.8410  -18.0600 C.ar   46  PHE46      -0.0003
    133  CE2      -30.6810    3.1140  -17.4030 C.ar   46  PHE46      -0.0003
    134  CZ       -30.5770    2.1500  -18.3960 C.ar   46  PHE46      -0.0000
    135  N        -26.4670    0.5040  -15.3510 N.am   47  ARG47      -0.1966
    136  CA       -25.2950    1.1600  -15.8990 C.3    47  ARG47       0.1729
    137  C        -24.5290    1.9000  -14.8130 C.2    47  ARG47       0.2616
    138  O        -23.9940    1.2600  -13.9180 O.2    47  ARG47      -0.2715
    139  CB       -25.7140    2.0870  -17.0440 C.3    47  ARG47       0.0348
    140  CG       -26.2630    1.2820  -18.2220 C.3    47  ARG47       0.0492
    141  CD       -26.7600    2.1610  -19.3720 C.3    47  ARG47       0.2205
    142  NE       -27.3740    1.3400  -20.4180 N.pl3  47  ARG47      -0.0865
    143  CZ       -28.0930    1.8220  -21.4320 C.cat  47  ARG47       0.5346
    144  NH1      -28.2930    3.1320  -21.5450 N.pl3  47  ARG47       0.1354
    145  NH2      -28.6210    0.9950  -22.3270 N.pl3  47  ARG47       0.1354
    146  N        -24.4760    3.2290  -14.8650 N.am   48  ALA48      -0.1963
    147  CA       -23.7290    3.9810  -13.8530 C.3    48  ALA48       0.1728
    148  C        -24.3190    3.8480  -12.4510 C.2    48  ALA48       0.2616
    149  O        -23.6280    4.0600  -11.4470 O.2    48  ALA48      -0.2715
    150  CB       -23.6420    5.4720  -14.2460 C.3    48  ALA48       0.0334
    151  N        -25.5990    3.5170  -12.3730 N.am   49  MET49      -0.1964
    152  CA       -26.2350    3.3730  -11.0710 C.3    49  MET49       0.1722
    153  C        -26.0210    2.0170  -10.4130 C.2    49  MET49       0.2458
    154  O        -26.2530    0.9760  -11.0200 O.2    49  MET49      -0.2730
    155  CB       -27.7380    3.5810  -11.1480 C.3    49  MET49       0.0427
    156  CG       -28.3660    3.5100   -9.7440 C.3    49  MET49       0.0599
    157  SD       -30.1370    3.7470   -9.7290 S.3    49  MET49      -0.1393
    158  CE       -30.5880    2.6360   -8.3950 C.3    49  MET49       0.0692
    159  N        -25.5920    2.0260   -9.1470 N.am   50  PRO50      -0.2727
    160  CA       -25.3630    0.7760   -8.4130 C.3    50  PRO50       0.1402
    161  C        -26.6690    0.0800   -8.0360 C.2    50  PRO50       0.2269
    162  O        -27.7530    0.6730   -8.0950 O.2    50  PRO50      -0.2865
    163  CB       -24.5730    1.2250   -7.1850 C.3    50  PRO50       0.0296
    164  CG       -24.9810    2.6530   -6.9920 C.3    50  PRO50       0.0237
    165  CD       -25.1300    3.2020   -8.3860 C.3    50  PRO50       0.0939
    166  N        -28.8740   -2.1750   -5.1290 N.3    52  PHE52      -0.1241
    167  CA       -28.9680   -2.2450   -3.6850 C.3    52  PHE52       0.1605
    168  C        -29.6980   -3.5140   -3.2730 C.2    52  PHE52       0.2264
    169  O        -30.8270   -3.7570   -3.7060 O.2    52  PHE52      -0.2867
    170  CB       -29.7350   -1.0430   -3.1010 C.3    52  PHE52       0.0534
    171  CG       -28.9710    0.2490   -3.1450 C.ar   52  PHE52      -0.0203
    172  CD1      -28.9670    1.0330   -4.3010 C.ar   52  PHE52      -0.0042
    173  CD2      -28.2100    0.6570   -2.0460 C.ar   52  PHE52      -0.0042
    174  CE1      -28.2080    2.2050   -4.3670 C.ar   52  PHE52      -0.0003
    175  CE2      -27.4460    1.8320   -2.1010 C.ar   52  PHE52      -0.0003
    176  CZ       -27.4440    2.6060   -3.2650 C.ar   52  PHE52      -0.0000
    177  N        -31.9430   -1.8420    1.1950 N.3    57  VAL57      -0.1245
    178  CA       -33.2020   -1.1430    0.9220 C.3    57  VAL57       0.1561
    179  C        -34.2620   -2.1930    0.6040 C.2    57  VAL57       0.2260
    180  O        -34.2860   -2.7420   -0.5000 O.2    57  VAL57      -0.2867
    181  CB       -33.0650   -0.1870   -0.2880 C.3    57  VAL57       0.0252
    182  CG1      -34.3580    0.5910   -0.4860 C.3    57  VAL57       0.0019
    183  CG2      -31.9130    0.7640   -0.0760 C.3    57  VAL57       0.0019
    184  N        -39.0500    0.6200   -0.9360 N.3    62  LEU62      -0.1245
    185  CA       -39.1170    0.9690   -2.3530 C.3    62  LEU62       0.1561
    186  C        -40.5620    1.3870   -2.6830 C.2    62  LEU62       0.2260
    187  O        -40.7890    2.3150   -3.4570 O.2    62  LEU62      -0.2867
    188  CB       -38.6800   -0.2190   -3.2080 C.3    62  LEU62       0.0270
    189  CG       -37.2250   -0.2410   -3.7220 C.3    62  LEU62       0.0019
    190  CD1      -36.3580    0.7050   -2.9520 C.3    62  LEU62       0.0001
    191  CD2      -36.6850   -1.6510   -3.6560 C.3    62  LEU62       0.0001
    192  N        -40.8230    4.9610   -1.3210 N.3    65  VAL65      -0.1245
    193  CA       -40.1330    5.9990   -2.0880 C.3    65  VAL65       0.1561
    194  C        -40.8330    6.2090   -3.4320 C.2    65  VAL65       0.2260
    195  O        -40.9050    7.3320   -3.9320 O.2    65  VAL65      -0.2867
    196  CB       -38.6080    5.6620   -2.2750 C.3    65  VAL65       0.0252
    197  CG1      -38.4040    4.6480   -3.3800 C.3    65  VAL65       0.0019
    198  CG2      -37.8150    6.9440   -2.5240 C.3    65  VAL65       0.0019
    199  N        -42.0120    9.8980   -4.3570 N.3    69  LEU69      -0.1245
    200  CA       -41.5430   10.6020   -5.5460 C.3    69  LEU69       0.1561
    201  C        -42.6750   11.0010   -6.4790 C.2    69  LEU69       0.2260
    202  O        -42.6580   12.0930   -7.0420 O.2    69  LEU69      -0.2867
    203  CB       -40.5130    9.7550   -6.3010 C.3    69  LEU69       0.0270
    204  CG       -39.2400    9.5320   -5.4840 C.3    69  LEU69       0.0019
    205  CD1      -38.3240    8.5310   -6.1830 C.3    69  LEU69       0.0001
    206  CD2      -38.5320   10.8670   -5.2890 C.3    69  LEU69       0.0001
@<TRIPOS>BOND
     1   145   143    1
     2   144   143    1
     3   143   142    2
     4   142   141    1
     5   141   140    1
     6   134   132   ar
     7   134   133   ar
     8   140   139    1
     9   132   130   ar
    10   133   131   ar
    11   139   136    1
    12   130   129   ar
    13   100    99    1
    14   131   129   ar
    15   136   135    1
    16   136   137    1
    17    97    99   ar
    18    97    95   ar
    19   129   128    1
    20    99    98   ar
    21   135   126   am
    22    95    94   ar
    23   146   137   am
    24   146   147    1
    25   137   138    2
    26    98    96   ar
    27    63    64    1
    28    63    60    1
    29   126   127    2
    30   126   125    1
    31   128   125    1
    32   150   147    1
    33    64    65    1
    34    94    96   ar
    35    94    93    1
    36   116   114    1
    37   125   124    1
    38    88    86    1
    39   147   148    1
    40    65    59    1
    41    60    59    1
    42    60    61    1
    43    93    90    1
    44    59    57   am
    45   114   113    1
    46    69    68    2
    47    66    61   am
    48    66    67    1
    49    86    87    1
    50    86    85    1
    51    90    89    1
    52    90    91    1
    53    51    50    2
    54   148   151   am
    55   148   149    2
    56    61    62    2
    57   151   152    1
    58    82    81    1
    59    82    85    1
    60    82    83    1
    61    70    72    1
    62    70    67    1
    63    70    71    1
    64    57    58    2
    65    57    56    1
    66    67    68    1
    67    92    91    2
    68    68    73   am
    69    56    55    1
    70   113   115    1
    71   113   110    1
    72    91   101   am
    73    50    55   am
    74    50    49    1
    75    83    84    2
    76   110   109    1
    77   110   111    1
    78   155   152    1
    79   155   156    1
    80   152   153    1
    81   154   153    2
    82    80    78    1
    83    49    48    1
    84    49    52    1
    85    73    74    1
    86   101   102    1
    87   153   159   am
    88    74    75    1
    89    74    77    1
    90    46    44   ar
    91    46    47   ar
    92   112   111    2
    93   111   117   am
    94    44    43   ar
    95    53    52    1
    96   156   157    1
    97   157   158    1
    98    75    76    2
    99    78    77    1
   100    78    79    1
   101    52    54    1
   102   102   103    1
   103   102   105    1
   104   159   160    1
   105   159   165    1
   106    47    45   ar
   107   106   105    1
   108   106   108    1
   109   117   118    1
   110   103   104    2
   111    43    45   ar
   112    43    42    1
   113    41    40    2
   114   160   161    1
   115   160   163    1
   116   165   164    1
   117    35    34    2
   118   105   107    1
   119   162   161    2
   120    39    42    1
   121    39    40    1
   122    39    38    1
   123   118   119    1
   124   118   121    1
   125   119   120    2
   126    34    38   am
   127    34    33    1
   128   163   164    1
   129   202   201    2
   130    36    33    1
   131    36    37    1
   132   123   121    1
   133    33    32    1
   134   201   200    1
   135   121   122    1
   136   203   200    1
   137   203   204    1
   138   205   204    1
   139   200   199    1
   140   204   206    1
   141   166   167    1
   142    32    24   am
   143    19    18    2
   144    25    24    2
   145   174   172   ar
   146   174   176   ar
   147   172   171   ar
   148    24    23    1
   149   195   194    2
   150    20    17    1
   151    20    21    1
   152    18    17    1
   153   189   191    1
   154   189   188    1
   155   189   190    1
   156   169   168    2
   157   167   168    1
   158   167   170    1
   159    17    16    1
   160   187   186    2
   161   194   193    1
   162   197   196    1
   163   176   175   ar
   164   188   185    1
   165   171   170    1
   166   171   173   ar
   167    23    22    1
   168    23    26    1
   169   186   185    1
   170   198   196    1
   171   185   184    1
   172   196   193    1
   173    16    11   am
   174   175   173   ar
   175   193   192    1
   176    12    11    2
   177    26    27    1
   178    11    10    1
   179    14    13    1
   180   180   179    2
   181   182   181    1
   182    27    28   ar
   183    27    29   ar
   184     8     6    1
   185   181   183    1
   186   181   178    1
   187    10    13    1
   188    10     9    1
   189    13    15    1
   190    28    30   ar
   191     6     7    1
   192     6     5    1
   193    29    31   ar
   194   179   178    1
   195     4     3    2
   196   178   177    1
   197     3     2    1
   198    30    31   ar
   199     5     2    1
   200     2     1    1
