@<TRIPOS>MOLECULE
tmp/1wvgA01.pdb
 221 212 0 0 0
SMALL
GASTEIGER

@<TRIPOS>ATOM
      1  N         69.4040   23.9240   41.0680 N.3    21  LYS21      -0.1245
      2  CA        69.3240   22.7250   40.2410 C.3    21  LYS21       0.1561
      3  C         69.5010   23.0790   38.7700 C.2    21  LYS21       0.2260
      4  O         70.2200   22.3830   38.0380 O.2    21  LYS21      -0.2867
      5  CB        67.9780   21.9820   40.4030 C.3    21  LYS21       0.0271
      6  CG        67.6220   21.5180   41.8140 C.3    21  LYS21       0.0035
      7  CD        67.3470   20.0160   41.9720 C.3    21  LYS21       0.0206
      8  CE        66.0150   19.5400   41.4190 C.3    21  LYS21       0.1093
      9  NZ        65.2250   18.7080   42.3460 N.3    21  LYS21      -0.1314
     10  N         60.2560   26.7360   45.6580 N.3    91  PRO91      -0.2102
     11  CA        60.5440   25.4460   46.2690 C.3    91  PRO91       0.1504
     12  C         60.6380   25.3830   47.7920 C.2    91  PRO91       0.2576
     13  O         60.9560   24.3280   48.3390 O.2    91  PRO91      -0.2718
     14  CB        61.9200   25.1050   45.7170 C.3    91  PRO91       0.0282
     15  CG        62.6470   26.4220   45.6780 C.3    91  PRO91       0.0208
     16  CD        61.5570   27.4590   45.4740 C.3    91  PRO91       0.0893
     17  N         60.3750   26.4780   48.5110 N.am   92  LEU92      -0.1966
     18  CA        60.5230   26.4400   49.9650 C.3    92  LEU92       0.1728
     19  C         59.2930   26.2850   50.8500 C.2    92  LEU92       0.2616
     20  O         58.2460   26.9170   50.6560 O.2    92  LEU92      -0.2715
     21  CB        61.4510   27.5720   50.4550 C.3    92  LEU92       0.0311
     22  CG        62.5530   27.9050   49.4720 C.3    92  LEU92       0.0022
     23  CD1       63.1030   29.2780   49.8520 C.3    92  LEU92       0.0001
     24  CD2       63.6750   26.8860   49.5000 C.3    92  LEU92       0.0001
     25  N         59.4880   25.4500   51.8840 N.am   93  VAL93      -0.1977
     26  CA        58.4680   25.1100   52.8690 C.3    93  VAL93       0.1596
     27  C         57.9290   26.2620   53.7450 C.2    93  VAL93       0.2287
     28  O         56.7400   26.5910   53.7130 O.2    93  VAL93      -0.2864
     29  CB        58.8560   23.8780   53.7160 C.3    93  VAL93       0.0276
     30  CG1       57.8010   23.6450   54.7970 C.3    93  VAL93       0.0022
     31  CG2       58.9510   22.6000   52.8730 C.3    93  VAL93       0.0022
     32  N         59.1520   17.2650   40.1790 N.3   131  THR131     -0.1203
     33  CA        58.2240   17.5600   41.2530 C.3   131  THR131      0.1994
     34  C         59.0100   17.6920   42.5590 C.2   131  THR131      0.2619
     35  O         59.8370   18.5930   42.7120 O.2   131  THR131     -0.2717
     36  CB        56.9730   16.6390   41.2990 C.3   131  THR131      0.1784
     37  OG1       57.3750   15.2970   41.5270 O.3   131  THR131     -0.2211
     38  CG2       56.2200   16.7240   39.9820 C.3   131  THR131      0.0376
     39  N         58.8340   16.7690   43.4840 N.am  132  SER132     -0.1937
     40  CA        59.5630   16.8330   44.7440 C.3   132  SER132      0.2055
     41  C         59.3590   15.5640   45.5510 C.2   132  SER132      0.2643
     42  O         58.3390   14.8540   45.4120 O.2   132  SER132     -0.2714
     43  CB        58.8820   17.9420   45.5370 C.3   132  SER132      0.2130
     44  OG        59.3410   18.0190   46.8760 O.3   132  SER132     -0.2179
     45  N         60.2880   15.3280   46.4550 N.am  133  ASP133     -0.1957
     46  CA        60.1580   14.1980   47.3710 C.3   133  ASP133      0.1840
     47  C         58.9760   14.4690   48.3330 C.2   133  ASP133      0.2621
     48  O         58.4270   13.5660   48.9590 O.2   133  ASP133     -0.2715
     49  CB        61.4810   13.8620   48.1070 C.3   133  ASP133      0.1450
     50  CG        62.1390   14.9530   48.9460 C.2   133  ASP133      0.3671
     51  OD1       63.2370   14.8070   49.4860 O.co2 133  ASP133     -0.2456
     52  OD2       61.4190   16.0370   49.1100 O.co2 133  ASP133     -0.2456
     53  N         58.5240   15.7240   48.4250 N.am  134  LYS134     -0.1977
     54  CA        57.4130   16.0810   49.2890 C.3   134  LYS134      0.1596
     55  C         56.0390   15.8570   48.7010 C.2   134  LYS134      0.2287
     56  O         55.0370   16.1800   49.3310 O.2   134  LYS134     -0.2864
     57  CB        57.5440   17.5250   49.7370 C.3   134  LYS134      0.0298
     58  CG        58.9000   17.6750   50.3810 C.3   134  LYS134      0.0038
     59  CD        58.9360   18.6400   51.5370 C.3   134  LYS134      0.0206
     60  CE        60.3380   19.2160   51.7180 C.3   134  LYS134      0.1093
     61  NZ        61.3870   18.1840   51.6690 N.3   134  LYS134     -0.1314
     62  N         53.7430   24.1420   50.0740 N.3   157  TYR157     -0.1241
     63  CA        54.7650   23.7150   49.1230 C.3   157  TYR157      0.1605
     64  C         54.6250   22.2050   48.8170 C.2   157  TYR157      0.2264
     65  O         54.4410   21.7960   47.6700 O.2   157  TYR157     -0.2867
     66  CB        56.1730   24.0110   49.6410 C.3   157  TYR157      0.0534
     67  CG        57.1300   23.2850   48.7510 C.ar  157  TYR157     -0.0201
     68  CD1       57.3090   23.7090   47.4350 C.ar  157  TYR157     -0.0009
     69  CD2       57.8510   22.1790   49.2070 C.ar  157  TYR157     -0.0009
     70  CE1       58.2200   23.0600   46.6040 C.ar  157  TYR157      0.0417
     71  CE2       58.7420   21.4960   48.3790 C.ar  157  TYR157      0.0417
     72  CZ        58.9150   21.9400   47.0620 C.ar  157  TYR157      0.1957
     73  OH        59.7950   21.3030   46.2170 O.3   157  TYR157     -0.2866
     74  N         65.3830   13.5800   45.9440 N.3   194  GLY194     -0.1210
     75  CA        65.5450   13.6770   47.3850 C.3   194  GLY194      0.1956
     76  C         65.8490   15.1450   47.7680 C.2   194  GLY194      0.2612
     77  O         65.3200   16.0870   47.1620 O.2   194  GLY194     -0.2717
     78  N         66.6810   15.3320   48.8010 N.am  195  ASN195     -0.1960
     79  CA        67.1040   16.6430   49.2610 C.3   195  ASN195      0.1819
     80  C         68.4770   16.8650   48.6680 C.2   195  ASN195      0.2621
     81  O         69.4010   16.2040   49.1120 O.2   195  ASN195     -0.2715
     82  CB        67.1970   16.7090   50.7870 C.3   195  ASN195      0.1195
     83  CG        65.8510   17.0820   51.3690 C.2   195  ASN195      0.2630
     84  OD1       64.8350   16.4630   51.0300 O.2   195  ASN195     -0.2716
     85  ND2       65.8150   18.0620   52.2720 N.am  195  ASN195     -0.0877
     86  N         68.5730   17.7250   47.6330 N.am  196  VAL196     -0.1977
     87  CA        69.8310   18.0110   46.9550 C.3   196  VAL196      0.1596
     88  C         70.6550   18.9910   47.7430 C.2   196  VAL196      0.2287
     89  O         70.1680   20.0260   48.1750 O.2   196  VAL196     -0.2864
     90  CB        69.7000   18.6190   45.5460 C.3   196  VAL196      0.0276
     91  CG1       69.2770   17.5610   44.5590 C.3   196  VAL196      0.0022
     92  CG2       68.7120   19.7810   45.5190 C.3   196  VAL196      0.0022
     93  N         66.7770   29.1710   54.4480 N.3   205  ASP205     -0.1225
     94  CA        66.3950   28.1560   55.4130 C.3   205  ASP205      0.1805
     95  C         66.8550   26.7310   55.1300 C.2   205  ASP205      0.2598
     96  O         66.5890   25.8210   55.9320 O.2   205  ASP205     -0.2718
     97  CB        64.8950   28.2120   55.7100 C.3   205  ASP205      0.1424
     98  CG        64.5490   29.3920   56.5670 C.2   205  ASP205      0.3668
     99  OD1       65.3040   29.8600   57.4140 O.co2 205  ASP205     -0.2456
    100  OD2       63.3580   29.8610   56.2850 O.co2 205  ASP205     -0.2456
    101  N         67.5530   26.5130   54.0180 N.am  206  ARG206     -0.1966
    102  CA        67.9990   25.1560   53.7350 C.3   206  ARG206      0.1729
    103  C         69.1530   24.8800   54.6570 C.2   206  ARG206      0.2616
    104  O         69.8580   25.8030   55.0320 O.2   206  ARG206     -0.2715
    105  CB        68.2870   24.8800   52.2600 C.3   206  ARG206      0.0348
    106  CG        67.0380   24.9790   51.3540 C.3   206  ARG206      0.0492
    107  CD        67.3350   24.3430   49.9910 C.3   206  ARG206      0.2205
    108  NE        66.2060   24.3220   49.0830 N.pl3 206  ARG206     -0.0865
    109  CZ        66.3120   24.3880   47.7490 C.cat 206  ARG206      0.5346
    110  NH1       67.4800   24.4900   47.1090 N.pl3 206  ARG206      0.1354
    111  NH2       65.2120   24.3480   47.0030 N.pl3 206  ARG206      0.1354
    112  N         69.3120   23.6290   55.0370 N.am  207  LEU207     -0.1977
    113  CA        70.3120   23.2000   55.9820 C.3   207  LEU207      0.1596
    114  C         71.7690   23.4940   55.6980 C.2   207  LEU207      0.2287
    115  O         72.4530   24.1380   56.4770 O.2   207  LEU207     -0.2864
    116  CB        70.1310   21.7200   56.3200 C.3   207  LEU207      0.0297
    117  CG        71.0930   21.2570   57.4100 C.3   207  LEU207      0.0022
    118  CD1       70.7010   21.9120   58.7460 C.3   207  LEU207      0.0001
    119  CD2       71.0930   19.7270   57.4860 C.3   207  LEU207      0.0001
    120  N         72.5700   27.1030   55.1340 N.3   210  ASP210     -0.1239
    121  CA        72.5080   27.6720   56.4820 C.3   210  ASP210      0.1674
    122  C         73.8110   27.4230   57.1980 C.2   210  ASP210      0.2266
    123  O         74.3830   28.2940   57.8410 O.2   210  ASP210     -0.2867
    124  CB        71.3660   27.0790   57.3660 C.3   210  ASP210      0.1410
    125  CG        70.0150   27.7670   57.2750 C.2   210  ASP210      0.3668
    126  OD1       69.7290   28.6130   56.4490 O.co2 210  ASP210     -0.2456
    127  OD2       69.1550   27.3700   58.1810 O.co2 210  ASP210     -0.2456
    128  N         75.8900   27.6620   63.6030 N.3   221  VAL221     -0.1231
    129  CA        74.6850   27.5260   62.8340 C.3   221  VAL221      0.1692
    130  C         73.6290   27.0690   63.7930 C.2   221  VAL221      0.2592
    131  O         73.8820   26.2600   64.7070 O.2   221  VAL221     -0.2718
    132  CB        74.8530   26.6000   61.6140 C.3   221  VAL221      0.0266
    133  CG1       75.4740   25.2520   62.0080 C.3   221  VAL221      0.0020
    134  CG2       73.5160   26.3760   60.9180 C.3   221  VAL221      0.0020
    135  N         72.4590   27.6270   63.5700 N.am  222  ILE222     -0.1966
    136  CA        71.3150   27.2830   64.3830 C.3   222  ILE222      0.1727
    137  C         70.4110   26.1670   63.8170 C.2   222  ILE222      0.2616
    138  O         69.6950   26.3780   62.8290 O.2   222  ILE222     -0.2715
    139  CB        70.5100   28.4980   64.7490 C.3   222  ILE222      0.0290
    140  CG1       71.3480   29.3150   65.7410 C.3   222  ILE222      0.0022
    141  CG2       69.2060   28.0000   65.3670 C.3   222  ILE222      0.0023
    142  CD1       70.6790   30.6020   66.2010 C.3   222  ILE222      0.0001
    143  N         70.4510   24.9870   64.4920 N.am  223  ILE223     -0.1963
    144  CA        69.7090   23.7560   64.1730 C.3   223  ILE223      0.1727
    145  C         68.3330   23.6450   64.8170 C.2   223  ILE223      0.2616
    146  O         68.1830   23.6190   66.0530 O.2   223  ILE223     -0.2715
    147  CB        70.5220   22.5350   64.5410 C.3   223  ILE223      0.0290
    148  CG1       71.8350   22.6310   63.7960 C.3   223  ILE223      0.0022
    149  CG2       69.7770   21.2720   64.1360 C.3   223  ILE223      0.0023
    150  CD1       71.6640   22.5640   62.2810 C.3   223  ILE223      0.0001
    151  N         67.3140   23.5500   63.9550 N.am  224  ARG224     -0.1963
    152  CA        65.9770   23.4450   64.4700 C.3   224  ARG224      0.1729
    153  C         65.4410   22.0460   64.7070 C.2   224  ARG224      0.2616
    154  O         64.6540   21.8870   65.6450 O.2   224  ARG224     -0.2715
    155  CB        64.9470   24.3570   63.8310 C.3   224  ARG224      0.0348
    156  CG        65.1500   24.6670   62.3600 C.3   224  ARG224      0.0492
    157  CD        63.8250   25.0140   61.7140 C.3   224  ARG224      0.2205
    158  NE        63.8380   24.9790   60.2540 N.pl3 224  ARG224     -0.0865
    159  CZ        64.6690   25.7020   59.5180 C.cat 224  ARG224      0.5346
    160  NH1       65.5750   26.5220   60.0810 N.pl3 224  ARG224      0.1354
    161  NH2       64.5910   25.5790   58.1910 N.pl3 224  ARG224      0.1354
    162  N         65.8440   21.0560   63.8790 N.am  225  ASN225     -0.1972
    163  CA        65.3550   19.6480   63.9670 C.3   225  ASN225      0.1688
    164  C         66.4120   18.5770   63.7260 C.2   225  ASN225      0.2292
    165  O         66.4240   17.9480   62.6630 O.2   225  ASN225     -0.2864
    166  CB        64.3160   19.4550   62.8490 C.3   225  ASN225      0.1181
    167  CG        63.1050   20.3260   63.0670 C.2   225  ASN225      0.2629
    168  OD1       62.4000   20.1550   64.0610 O.2   225  ASN225     -0.2716
    169  ND2       62.8530   21.2460   62.1410 N.am  225  ASN225     -0.0877
    170  N         65.6440   15.0630   62.3770 N.3   228  SER228     -0.1217
    171  CA        64.8660   14.7960   61.2150 C.3   228  SER228      0.1889
    172  C         65.7690   14.0520   60.2400 C.2   228  SER228      0.2288
    173  O         67.0130   14.1270   60.2990 O.2   228  SER228     -0.2866
    174  CB        64.3060   16.0710   60.6170 C.3   228  SER228      0.2089
    175  OG        63.2860   16.5520   61.4630 O.3   228  SER228     -0.2183
    176  N         66.1320   13.1090   55.9470 N.3   230  ARG230     -0.1245
    177  CA        65.8350   13.4960   54.5650 C.3   230  ARG230      0.1563
    178  C         66.6590   12.6120   53.6560 C.2   230  ARG230      0.2260
    179  O         67.6680   12.0510   54.0980 O.2   230  ARG230     -0.2867
    180  CB        66.3040   14.9330   54.3030 C.3   230  ARG230      0.0307
    181  CG        65.4560   16.0000   54.9780 C.3   230  ARG230      0.0489
    182  CD        63.9930   15.8720   54.5680 C.3   230  ARG230      0.2205
    183  NE        63.1550   16.9240   55.0740 N.pl3 230  ARG230     -0.0865
    184  CZ        62.4470   16.8110   56.1770 C.cat 230  ARG230      0.5346
    185  NH1       62.4550   15.7110   56.9200 N.pl3 230  ARG230      0.1354
    186  NH2       61.7020   17.8410   56.5360 N.pl3 230  ARG230      0.1354
    187  N         69.1530   12.8450   51.7280 N.3   232  TRP232     -0.1241
    188  CA        70.2970   13.6530   51.2870 C.3   232  TRP232      0.1605
    189  C         71.0970   13.1750   50.0850 C.2   232  TRP232      0.2264
    190  O         71.5890   12.0410   50.0610 O.2   232  TRP232     -0.2867
    191  CB        71.2720   13.9140   52.4360 C.3   232  TRP232      0.0550
    192  CG        70.5890   14.0800   53.7650 C.ar  232  TRP232      0.0003
    193  CD1       70.4810   13.1420   54.7570 C.ar  232  TRP232      0.0946
    194  CD2       69.9480   15.2580   54.2670 C.ar  232  TRP232      0.0152
    195  NE1       69.8220   13.6550   55.8470 N.ar  232  TRP232     -0.2442
    196  CE2       69.4840   14.9560   55.5860 C.ar  232  TRP232      0.0810
    197  CE3       69.7290   16.5330   53.7290 C.ar  232  TRP232      0.0012
    198  CZ2       68.7970   15.8930   56.3730 C.ar  232  TRP232      0.0191
    199  CZ3       69.0280   17.4380   54.5260 C.ar  232  TRP232      0.0001
    200  CH2       68.5820   17.1400   55.8310 C.ar  232  TRP232      0.0015
    201  N         69.5840   15.2100   60.5010 N.3   272  VAL272     -0.1245
    202  CA        70.1240   16.5450   60.4430 C.3   272  VAL272      0.1561
    203  C         71.3950   16.6270   61.2970 C.2   272  VAL272      0.2260
    204  O         72.4790   17.0470   60.8700 O.2   272  VAL272     -0.2867
    205  CB        69.0430   17.5030   60.9150 C.3   272  VAL272      0.0252
    206  CG1       69.6190   18.8950   61.0910 C.3   272  VAL272      0.0019
    207  CG2       67.9370   17.5560   59.8520 C.3   272  VAL272      0.0019
    208  N         57.0090   21.0170   59.7970 N.3   295  GLU295     -0.1231
    209  CA        57.8900   20.3670   58.8530 C.3   295  GLU295      0.1699
    210  C         57.8910   18.8740   59.1690 C.2   295  GLU295      0.2592
    211  O         57.7870   18.4890   60.3290 O.2   295  GLU295     -0.2718
    212  CB        59.3380   20.8520   58.9940 C.3   295  GLU295      0.0402
    213  CG        59.6940   22.1670   58.2680 C.3   295  GLU295      0.1161
    214  CD        61.1860   22.3980   58.1790 C.2   295  GLU295      0.3649
    215  OE1       61.9240   21.8700   57.3480 O.co2 295  GLU295     -0.2457
    216  OE2       61.6200   23.2120   59.1130 O.co2 295  GLU295     -0.2457
    217  N         58.0280   18.0350   58.1400 N.am  296  ALA296     -0.1980
    218  CA        58.0560   16.5830   58.3080 C.3   296  ALA296      0.1597
    219  C         59.3020   16.1270   59.0190 C.2   296  ALA296      0.2287
    220  O         60.3910   16.6100   58.7620 O.2   296  ALA296     -0.2864
    221  CB        58.1140   15.8930   56.9470 C.3   296  ALA296      0.0319
@<TRIPOS>BOND
     1     4     3    2
     2     3     2    1
     3    38    36    1
     4    32    33    1
     5     2     5    1
     6     2     1    1
     7     5     6    1
     8    33    36    1
     9    33    34    1
    10    36    37    1
    11     8     7    1
    12     8     9    1
    13     6     7    1
    14    34    35    2
    15    34    39   am
    16    39    40    1
    17    91    90    1
    18    40    43    1
    19    40    41    1
    20    42    41    2
    21    16    10    1
    22    16    15    1
    23    92    90    1
    24    43    44    1
    25    90    87    1
    26    41    45   am
    27    10    11    1
    28    15    14    1
    29    14    11    1
    30    74    75    1
    31    73    72    1
    32    11    12    1
    33    45    46    1
    34    70    72   ar
    35    70    68   ar
    36    87    86    1
    37    87    88    1
    38   111   109    1
    39    72    71   ar
    40   110   109    1
    41    77    76    2
    42    46    49    1
    43    46    47    1
    44    75    76    1
    45    68    67   ar
    46    86    80   am
    47    65    64    2
    48    88    89    2
    49   109   108    2
    50    76    78   am
    51    12    13    2
    52    12    17   am
    53    49    50    1
    54    47    53   am
    55    47    48    2
    56    71    69   ar
    57    53    54    1
    58    17    18    1
    59    80    81    2
    60    80    79    1
    61    55    54    1
    62    55    56    2
    63    67    69   ar
    64    67    66    1
    65    78    79    1
    66    64    63    1
    67    50    52   ar
    68    50    51   ar
    69   108   107    1
    70    63    66    1
    71    63    62    1
    72    79    82    1
    73    54    57    1
    74    22    24    1
    75    22    23    1
    76    22    21    1
    77    57    58    1
    78    18    21    1
    79    18    19    1
    80   107   106    1
    81   190   189    2
    82   189   188    1
    83    58    59    1
    84    20    19    2
    85    82    83    1
    86    19    25   am
    87    84    83    2
    88   188   187    1
    89   188   191    1
    90   106   105    1
    91    83    85   am
    92    59    60    1
    93    61    60    1
    94    25    26    1
    95   105   102    1
    96   191   192    1
    97    26    29    1
    98    26    27    1
    99    31    29    1
   100   178   179    2
   101   178   177    1
   102    28    27    2
   103    29    30    1
   104   197   194   ar
   105   197   199   ar
   106   102   101    1
   107   102   103    1
   108   192   194   ar
   109   192   193   ar
   110   101    95   am
   111   194   196   ar
   112   180   177    1
   113   180   181    1
   114    93    94    1
   115   199   200   ar
   116   177   176    1
   117   182   181    1
   118   182   183    1
   119   103   104    2
   120   103   112   am
   121   193   195   ar
   122   112   113    1
   123   183   184    2
   124    95    94    1
   125    95    96    2
   126   120   121    1
   127    94    97    1
   128   196   195   ar
   129   196   198   ar
   130   114   113    1
   131   114   115    2
   132    97    98    1
   133   200   198   ar
   134   113   116    1
   135   184   186    1
   136   184   185    1
   137   100    98   ar
   138   116   117    1
   139   126   125   ar
   140   121   122    1
   141   121   124    1
   142    98    99   ar
   143   221   218    1
   144   122   123    2
   145   125   124    1
   146   125   127   ar
   147   215   214   ar
   148   117   119    1
   149   117   118    1
   150   217   218    1
   151   217   210   am
   152   214   213    1
   153   214   216   ar
   154   161   159    1
   155   213   212    1
   156   218   219    1
   157   220   219    2
   158   209   212    1
   159   209   210    1
   160   209   208    1
   161   210   211    2
   162   159   160    1
   163   159   158    2
   164   207   205    1
   165   172   173    2
   166   172   171    1
   167   158   157    1
   168   202   201    1
   169   202   205    1
   170   202   203    1
   171   174   171    1
   172   174   175    1
   173   204   203    2
   174   205   206    1
   175   134   132    1
   176   171   170    1
   177   132   133    1
   178   132   129    1
   179   157   156    1
   180   169   167   am
   181   150   148    1
   182   156   155    1
   183   165   164    2
   184   138   137    2
   185   129   128    1
   186   129   130    1
   187   166   167    1
   188   166   163    1
   189   167   168    2
   190   135   130   am
   191   135   136    1
   192   164   163    1
   193   130   131    2
   194   148   147    1
   195   137   136    1
   196   137   143   am
   197   155   152    1
   198   162   163    1
   199   162   153   am
   200   151   152    1
   201   151   145   am
   202   149   147    1
   203   144   143    1
   204   144   147    1
   205   144   145    1
   206   136   139    1
   207   152   153    1
   208   153   154    2
   209   139   141    1
   210   139   140    1
   211   145   146    2
   212   140   142    1
