@<TRIPOS>MOLECULE
tmp/1wvjA00.pdb
 170 164 0 0 0
SMALL
GASTEIGER

@<TRIPOS>ATOM
      1  N         12.4050   18.1140   22.6620 N.3    13  GLU13      -0.1245
      2  CA        12.4520   17.1260   21.5820 C.3    13  GLU13       0.1567
      3  C         11.2700   17.4660   20.7370 C.2    13  GLU13       0.2260
      4  O         10.1570   17.2800   21.1660 O.2    13  GLU13      -0.2867
      5  CB        12.2900   15.7290   22.1810 C.3    13  GLU13       0.0388
      6  CG        12.4290   14.5620   21.1990 C.3    13  GLU13       0.1160
      7  CD        13.8640   14.2950   20.8070 C.2    13  GLU13       0.3649
      8  OE1       14.6080   13.7810   21.6650 O.co2  13  GLU13      -0.2457
      9  OE2       14.2520   14.6250   19.6450 O.co2  13  GLU13      -0.2457
     10  N          7.4620   17.3040   20.5430 N.3    16  TYR16      -0.1241
     11  CA         6.8060   17.0730   21.8240 C.3    16  TYR16       0.1605
     12  C          6.9190   18.3070   22.7220 C.2    16  TYR16       0.2264
     13  O          5.9580   18.6980   23.3850 O.2    16  TYR16      -0.2867
     14  CB         7.4020   15.8280   22.5190 C.3    16  TYR16       0.0534
     15  CG         7.1610   14.5710   21.7050 C.ar   16  TYR16      -0.0201
     16  CD1        5.9360   13.8980   21.8200 C.ar   16  TYR16      -0.0009
     17  CD2        8.1340   14.0620   20.8030 C.ar   16  TYR16      -0.0009
     18  CE1        5.6720   12.7690   21.1000 C.ar   16  TYR16       0.0417
     19  CE2        7.8620   12.9020   20.0350 C.ar   16  TYR16       0.0417
     20  CZ         6.6410   12.2650   20.2250 C.ar   16  TYR16       0.1957
     21  OH         6.3030   11.1450   19.5370 O.3    16  TYR16      -0.2866
     22  N         16.8290   10.6740   28.6510 N.3    61  TYR61      -0.1241
     23  CA        15.5700    9.9670   28.9010 C.3    61  TYR61       0.1605
     24  C         15.6460    9.1640   30.1900 C.2    61  TYR61       0.2264
     25  O         14.8670    9.3890   31.1470 O.2    61  TYR61      -0.2867
     26  CB        15.1970    9.1070   27.6550 C.3    61  TYR61       0.0534
     27  CG        14.7100   10.0020   26.5690 C.ar   61  TYR61      -0.0201
     28  CD1       13.3730   10.3710   26.5260 C.ar   61  TYR61      -0.0009
     29  CD2       15.5890   10.5770   25.6150 C.ar   61  TYR61      -0.0009
     30  CE1       12.8980   11.2500   25.5830 C.ar   61  TYR61       0.0417
     31  CE2       15.0970   11.4310   24.6300 C.ar   61  TYR61       0.0417
     32  CZ        13.7580   11.7800   24.6320 C.ar   61  TYR61       0.1957
     33  OH        13.2390   12.6560   23.6870 O.3    61  TYR61      -0.2866
     34  N          8.1420   11.9440   25.4660 N.3    89  PRO89      -0.2102
     35  CA         8.2000   10.6950   24.6690 C.3    89  PRO89       0.1504
     36  C          9.1460    9.6470   25.3300 C.2    89  PRO89       0.2576
     37  O         10.2520    9.3300   24.8900 O.2    89  PRO89      -0.2718
     38  CB         8.6570   11.1920   23.2540 C.3    89  PRO89       0.0282
     39  CG         9.5480   12.3580   23.5610 C.3    89  PRO89       0.0208
     40  CD         8.8690   13.0610   24.8210 C.3    89  PRO89       0.0893
     41  N          8.6840    9.1580   26.4700 N.am   90  LEU90      -0.1966
     42  CA         9.4670    8.3030   27.3620 C.3    90  LEU90       0.1728
     43  C          8.9460    6.8710   27.2770 C.2    90  LEU90       0.2616
     44  O          7.8280    6.5960   27.6660 O.2    90  LEU90      -0.2715
     45  CB         9.3650    8.7860   28.8150 C.3    90  LEU90       0.0311
     46  CG        10.1560    7.9070   29.8250 C.3    90  LEU90       0.0022
     47  CD1       11.6970    8.0270   29.6370 C.3    90  LEU90       0.0001
     48  CD2        9.7810    8.2690   31.2780 C.3    90  LEU90       0.0001
     49  N          9.7710    5.9820   26.7420 N.am   91  THR91      -0.1951
     50  CA         9.3420    4.6190   26.4660 C.3    91  THR91       0.1897
     51  C          9.1960    3.7410   27.6920 C.2    91  THR91       0.2313
     52  O         10.0560    3.7490   28.5960 O.2    91  THR91      -0.2863
     53  CB        10.3140    3.9820   25.4660 C.3    91  THR91       0.1794
     54  OG1       10.3300    4.7640   24.2610 O.3    91  THR91      -0.2208
     55  CG2        9.8060    2.6190   25.0070 C.3    91  THR91       0.0378
     56  N         13.0090    0.2800   33.2900 N.3    96  ARG96      -0.1245
     57  CA        12.4540    1.5180   33.8880 C.3    96  ARG96       0.1563
     58  C         11.2610    1.1730   34.7570 C.2    96  ARG96       0.2260
     59  O         11.1100    1.7410   35.8350 O.2    96  ARG96      -0.2867
     60  CB        12.0790    2.5350   32.8160 C.3    96  ARG96       0.0307
     61  CG        13.2890    3.0670   32.0790 C.3    96  ARG96       0.0489
     62  CD        12.8930    3.8580   30.8510 C.3    96  ARG96       0.2205
     63  NE        14.0130    4.5180   30.1470 N.pl3  96  ARG96      -0.0865
     64  CZ        13.9150    5.0300   28.9340 C.cat  96  ARG96       0.5346
     65  NH1       12.7710    4.9230   28.2590 N.pl3  96  ARG96       0.1354
     66  NH2       14.9900    5.6270   28.3950 N.pl3  96  ARG96       0.1354
     67  N         20.4600    6.7350   18.3800 N.3   138  LEU138     -0.1245
     68  CA        20.8600    7.6580   19.4450 C.3   138  LEU138      0.1561
     69  C         21.9220    6.9910   20.3260 C.2   138  LEU138      0.2260
     70  O         21.9040    5.7770   20.4810 O.2   138  LEU138     -0.2867
     71  CB        19.6370    7.9740   20.2660 C.3   138  LEU138      0.0270
     72  CG        18.6770    9.1030   19.9270 C.3   138  LEU138      0.0019
     73  CD1       17.7620    9.3040   21.1710 C.3   138  LEU138      0.0001
     74  CD2       19.4530   10.4090   19.6050 C.3   138  LEU138      0.0001
     75  N         22.0760    7.1040   23.4410 N.3   140  SER140     -0.1202
     76  CA        21.4410    6.6060   24.6450 C.3   140  SER140      0.2020
     77  C         19.9450    6.5840   24.4290 C.2   140  SER140      0.2619
     78  O         19.4400    7.2760   23.5330 O.2   140  SER140     -0.2717
     79  CB        21.7670    7.4730   25.8550 C.3   140  SER140      0.2103
     80  OG        21.3420    8.7800   25.6400 O.3   140  SER140     -0.2182
     81  N         19.2450    5.7980   25.2250 N.am  141  GLY141     -0.1942
     82  CA        17.8000    5.6880   25.1000 C.3   141  GLY141      0.2014
     83  C         17.3430    4.2680   24.8390 C.2   141  GLY141      0.2640
     84  O         18.1760    3.3180   24.7650 O.2   141  GLY141     -0.2714
     85  N         16.0280    4.1030   24.6670 N.am  142  SER142     -0.1935
     86  CA        15.4550    2.7650   24.6450 C.3   142  SER142      0.2055
     87  C         15.8010    2.0520   23.3350 C.2   142  SER142      0.2644
     88  O         15.9280    0.8280   23.3240 O.2   142  SER142     -0.2714
     89  CB        13.9500    2.7860   24.9450 C.3   142  SER142      0.2130
     90  OG        13.3010    3.6460   24.0300 O.3   142  SER142     -0.2179
     91  N         16.0150    2.8150   22.2560 N.am  143  THR143     -0.1936
     92  CA        16.3630    2.1880   20.9790 C.3   143  THR143      0.2028
     93  C         17.7510    1.5710   21.0560 C.2   143  THR143      0.2642
     94  O         17.9430    0.4190   20.6410 O.2   143  THR143     -0.2714
     95  CB        16.2950    3.1440   19.8360 C.3   143  THR143      0.1808
     96  OG1       14.9110    3.4770   19.6300 O.3   143  THR143     -0.2208
     97  CG2       16.7320    2.4060   18.5450 C.3   143  THR143      0.0379
     98  N         18.6990    2.3300   21.5920 N.am  144  LYS144     -0.1977
     99  CA        20.0690    1.8090   21.7450 C.3   144  LYS144      0.1596
    100  C         20.0220    0.5670   22.6420 C.2   144  LYS144      0.2287
    101  O         20.5580   -0.5020   22.2740 O.2   144  LYS144     -0.2864
    102  CB        20.9980    2.8480   22.3300 C.3   144  LYS144      0.0298
    103  CG        22.4360    2.3730   22.3740 C.3   144  LYS144      0.0038
    104  CD        23.3810    3.5320   22.6410 C.3   144  LYS144      0.0206
    105  CE        24.8550    3.0880   22.6450 C.3   144  LYS144      0.1093
    106  NZ        25.6580    3.9810   23.5340 N.3   144  LYS144     -0.1314
    107  N         18.2720   13.4490   18.0860 N.3   174  THR174     -0.1218
    108  CA        17.4540   13.1580   16.9220 C.3   174  THR174      0.1862
    109  C         17.8020   14.0750   15.7730 C.2   174  THR174      0.2287
    110  O         18.0210   13.6000   14.6840 O.2   174  THR174     -0.2866
    111  CB        15.9390   13.1680   17.2960 C.3   174  THR174      0.1770
    112  OG1       15.7200   12.1970   18.3170 O.3   174  THR174     -0.2211
    113  CG2       15.1110   12.6410   16.1130 C.3   174  THR174      0.0375
    114  N         19.0510    5.5650    9.7060 N.3   190  TYR190     -0.1227
    115  CA        18.9390    5.9320   11.1160 C.3   190  TYR190      0.1736
    116  C         17.8190    5.1480   11.7590 C.2   190  TYR190      0.2595
    117  O         16.6790    5.1260   11.2460 O.2   190  TYR190     -0.2718
    118  CB        18.7210    7.4560   11.2500 C.3   190  TYR190      0.0548
    119  CG        18.6700    7.9690   12.6660 C.ar  190  TYR190     -0.0200
    120  CD1       19.6250    7.6010   13.5910 C.ar  190  TYR190     -0.0009
    121  CD2       17.6420    8.8240   13.0780 C.ar  190  TYR190     -0.0009
    122  CE1       19.5690    8.0610   14.9010 C.ar  190  TYR190      0.0417
    123  CE2       17.5640    9.2760   14.3800 C.ar  190  TYR190      0.0417
    124  CZ        18.5470    8.8870   15.2860 C.ar  190  TYR190      0.1957
    125  OH        18.4870    9.3530   16.5700 O.3   190  TYR190     -0.2866
    126  N         18.1370    4.4910   12.8790 N.am  191  LEU191     -0.1966
    127  CA        17.1490    3.6780   13.5570 C.3   191  LEU191      0.1728
    128  C         16.5380    4.4870   14.7120 C.2   191  LEU191      0.2616
    129  O         17.2840    4.9140   15.5920 O.2   191  LEU191     -0.2715
    130  CB        17.8300    2.3960   14.0590 C.3   191  LEU191      0.0311
    131  CG        18.1610    1.3740   12.9510 C.3   191  LEU191      0.0022
    132  CD1       19.3680    0.5250   13.3060 C.3   191  LEU191      0.0001
    133  CD2       16.9290    0.4800   12.7470 C.3   191  LEU191      0.0001
    134  N         15.2130    4.7400   14.6920 N.am  192  LEU192     -0.1963
    135  CA        14.5950    5.6520   15.6810 C.3   192  LEU192      0.1728
    136  C         13.1370    5.2710   15.8150 C.2   192  LEU192      0.2616
    137  O         12.5930    4.5290   14.9830 O.2   192  LEU192     -0.2715
    138  CB        14.7660    7.1280   15.2730 C.3   192  LEU192      0.0311
    139  CG        13.7640    7.6090   14.2100 C.3   192  LEU192      0.0022
    140  CD1       13.8520    9.1170   14.1360 C.3   192  LEU192      0.0001
    141  CD2       14.0160    6.9270   12.8110 C.3   192  LEU192      0.0001
    142  N         12.4570    5.7630   16.8350 N.am  193  GLU193     -0.1977
    143  CA        11.0840    5.3520   17.0340 C.3   193  GLU193      0.1602
    144  C         10.1620    5.8640   15.9030 C.2   193  GLU193      0.2287
    145  O         10.3770    6.9520   15.3430 O.2   193  GLU193     -0.2864
    146  CB        10.6170    5.8240   18.4090 C.3   193  GLU193      0.0415
    147  CG        11.3530    4.9970   19.4580 C.3   193  GLU193      0.1163
    148  CD        11.2090    5.4900   20.8920 C.2   193  GLU193      0.3649
    149  OE1       11.3660    4.6430   21.7900 O.co2 193  GLU193     -0.2457
    150  OE2       10.9550    6.6730   21.1170 O.co2 193  GLU193     -0.2457
    151  N          8.6700    9.3740   15.6010 N.3   196  MET196     -0.1245
    152  CA         9.5940   10.4450   15.2550 C.3   196  MET196      0.1570
    153  C          9.9110   10.3770   13.7540 C.2   196  MET196      0.2261
    154  O         10.0510   11.4080   13.0730 O.2   196  MET196     -0.2867
    155  CB        10.8650   10.3370   16.0940 C.3   196  MET196      0.0387
    156  CG        11.8280   11.4490   15.8570 C.3   196  MET196      0.0595
    157  SD        11.1250   13.1410   16.1060 S.3   196  MET196     -0.1393
    158  CE        11.0410   13.0790   17.9190 C.3   196  MET196      0.0692
    159  N          4.7140    4.8890   24.8270 N.3   220  TYR220     -0.1241
    160  CA         5.2180    5.9250   25.7370 C.3   220  TYR220      0.1605
    161  C          4.2570    5.9880   26.8850 C.2   220  TYR220      0.2264
    162  O          3.0610    5.9130   26.6810 O.2   220  TYR220     -0.2867
    163  CB         5.2360    7.3300   25.1250 C.3   220  TYR220      0.0534
    164  CG         6.1760    7.5380   23.9580 C.ar  220  TYR220     -0.0201
    165  CD1        7.3580    6.8230   23.8500 C.ar  220  TYR220     -0.0009
    166  CD2        5.8560    8.4650   22.9580 C.ar  220  TYR220     -0.0009
    167  CE1        8.2330    7.0270   22.8000 C.ar  220  TYR220      0.0417
    168  CE2        6.7150    8.6560   21.8620 C.ar  220  TYR220      0.0417
    169  CZ         7.8950    7.9330   21.7920 C.ar  220  TYR220      0.1957
    170  OH         8.7560    8.1040   20.7130 O.3   220  TYR220     -0.2866
@<TRIPOS>BOND
     1   114   115    1
     2   115   118    1
     3   115   116    1
     4   117   116    2
     5   118   119    1
     6   116   126   am
     7   119   121   ar
     8   119   120   ar
     9   133   131    1
    10   141   139    1
    11   126   127    1
    12   131   132    1
    13   131   130    1
    14   154   153    2
    15   121   123   ar
    16   127   130    1
    17   127   128    1
    18   120   122   ar
    19   153   152    1
    20   140   139    1
    21   139   138    1
    22   123   124   ar
    23   110   109    2
    24   134   128   am
    25   134   135    1
    26   128   129    2
    27   122   124   ar
    28   137   136    2
    29   152   151    1
    30   152   155    1
    31   138   135    1
    32   124   125    1
    33   145   144    2
    34   135   136    1
    35   109   108    1
    36   136   142   am
    37   156   155    1
    38   156   157    1
    39   144   143    1
    40   157   158    1
    41   113   111    1
    42   142   143    1
    43   108   111    1
    44   108   107    1
    45   143   146    1
    46   111   112    1
    47    67    68    1
    48   146   147    1
    49    97    95    1
    50    68    71    1
    51    68    69    1
    52   147   148    1
    53    21    20    1
    54    74    72    1
    55    96    95    1
    56     9     7   ar
    57    95    92    1
    58    72    71    1
    59    72    73    1
    60    19    20   ar
    61    19    17   ar
    62    20    18   ar
    63    69    70    2
    64    10    11    1
    65    94    93    2
    66   170   169    1
    67     3     4    2
    68     3     2    1
    69    17    15   ar
    70     7     6    1
    71     7     8   ar
    72   148   150   ar
    73   148   149   ar
    74    92    93    1
    75    92    91    1
    76    93    98   am
    77    18    16   ar
    78     6     5    1
    79     2     5    1
    80     2     1    1
    81    98    99    1
    82    15    16   ar
    83    15    14    1
    84    99   102    1
    85    99   100    1
    86   169   168   ar
    87   169   167   ar
    88    11    14    1
    89    11    12    1
    90   168   166   ar
    91    91    87   am
    92   101   100    2
    93   102   103    1
    94   103   104    1
    95   104   105    1
    96   105   106    1
    97    12    13    2
    98   167   165   ar
    99   166   164   ar
   100    38    39    1
   101    38    35    1
   102    88    87    2
   103    87    86    1
   104    75    76    1
   105    78    77    2
   106    39    40    1
   107    33    32    1
   108   165   164   ar
   109   164   163    1
   110    90    89    1
   111    54    53    1
   112    77    76    1
   113    77    81   am
   114    31    32   ar
   115    31    29   ar
   116    32    30   ar
   117    86    85    1
   118    86    89    1
   119    76    79    1
   120    85    83   am
   121    35    36    1
   122    35    34    1
   123    84    83    2
   124    40    34    1
   125   159   160    1
   126    83    82    1
   127    37    36    2
   128    55    53    1
   129    82    81    1
   130   163   160    1
   131    36    41   am
   132    53    50    1
   133    30    28   ar
   134    29    27   ar
   135    80    79    1
   136   160   161    1
   137    50    49    1
   138    50    51    1
   139    41    42    1
   140    28    27   ar
   141    27    26    1
   142   162   161    2
   143    49    43   am
   144    43    42    1
   145    43    44    2
   146    42    45    1
   147    26    23    1
   148    51    52    2
   149    65    64    1
   150    66    64    1
   151    22    23    1
   152    45    46    1
   153    23    24    1
   154    64    63    2
   155    47    46    1
   156    46    48    1
   157    63    62    1
   158    24    25    2
   159    62    61    1
   160    61    60    1
   161    60    57    1
   162    56    57    1
   163    57    58    1
   164    58    59    2
