@<TRIPOS>MOLECULE
tmp/1wvmB00.pdb
 198 191 0 0 0
SMALL
GASTEIGER

@<TRIPOS>ATOM
      1  N         98.4050    3.0840   19.0890 N.3    30  ASP30      -0.1225
      2  CA        97.7770    3.1600   17.7770 C.3    30  ASP30       0.1805
      3  C         96.5650    2.2310   17.6770 C.2    30  ASP30       0.2598
      4  O         95.8630    2.0150   18.6640 O.2    30  ASP30      -0.2718
      5  CB        98.8320    2.8070   16.7220 C.3    30  ASP30       0.1424
      6  CG        98.6160    3.5290   15.4030 C.2    30  ASP30       0.3668
      7  OD1       97.6440    3.1990   14.6960 O.co2  30  ASP30      -0.2456
      8  OD2       99.4220    4.4310   15.0720 O.co2  30  ASP30      -0.2456
      9  N         96.3270    1.6710   16.4930 N.am   31  SER31      -0.1952
     10  CA        95.1650    0.8070   16.2990 C.3    31  SER31       0.1924
     11  C         95.4380   -0.6910   16.3890 C.2    31  SER31       0.2314
     12  O         94.7120   -1.4940   15.8050 O.2    31  SER31      -0.2863
     13  CB        94.5070    1.1200   14.9510 C.3    31  SER31       0.2116
     14  OG        95.2300    0.5470   13.8710 O.3    31  SER31      -0.2180
     15  N         91.3290   -1.8060   10.2010 N.3    63  ASN63      -0.1240
     16  CA        91.9270   -1.0740   11.3100 C.3    63  ASN63       0.1653
     17  C         93.4230   -1.3900   11.3040 C.2    63  ASN63       0.2266
     18  O         94.0240   -1.6620   12.3460 O.2    63  ASN63      -0.2867
     19  CB        91.2680   -1.5390   12.6130 C.3    63  ASN63       0.1155
     20  CG        91.5730   -0.6320   13.7820 C.2    63  ASN63       0.2627
     21  OD1       91.5870    0.5880   13.6430 O.2    63  ASN63      -0.2716
     22  ND2       91.7940   -1.2240   14.9520 N.am   63  ASN63      -0.0877
     23  N         96.0390    0.6420   10.4610 N.3    65  HIS65      -0.1241
     24  CA        96.9630    1.7530   10.6770 C.3    65  HIS65       0.1621
     25  C         98.1260    1.4360   11.6250 C.2    65  HIS65       0.2264
     26  O         99.2850    1.6830   11.2900 O.2    65  HIS65      -0.2867
     27  CB        96.1740    2.9730   11.1700 C.3    65  HIS65       0.0745
     28  CG        96.9630    4.2460   11.2040 C.ar   65  HIS65       0.0817
     29  ND1       97.6620    4.6650   12.3170 N.ar   65  HIS65      -0.2268
     30  CD2       97.1420    5.2060   10.2660 C.ar   65  HIS65       0.1154
     31  CE1       98.2320    5.8300   12.0650 C.ar   65  HIS65       0.1986
     32  NE2       97.9310    6.1810   10.8270 N.ar   65  HIS65      -0.2212
     33  N         92.6250    2.6080   19.2310 N.3    99  PHE99      -0.1227
     34  CA        91.6370    2.7380   18.1640 C.3    99  PHE99       0.1736
     35  C         91.0740    1.4140   17.6760 C.2    99  PHE99       0.2595
     36  O         91.7980    0.4230   17.5390 O.2    99  PHE99      -0.2718
     37  CB        92.2250    3.4670   16.9500 C.3    99  PHE99       0.0547
     38  CG        92.3210    4.9520   17.1150 C.ar   99  PHE99      -0.0202
     39  CD1       93.4010    5.5250   17.7750 C.ar   99  PHE99      -0.0042
     40  CD2       91.3300    5.7810   16.6040 C.ar   99  PHE99      -0.0042
     41  CE1       93.4970    6.9060   17.9220 C.ar   99  PHE99      -0.0003
     42  CE2       91.4130    7.1620   16.7460 C.ar   99  PHE99      -0.0003
     43  CZ        92.5010    7.7250   17.4070 C.ar   99  PHE99      -0.0000
     44  N         89.7680    1.4200   17.4240 N.am  100  ASN100     -0.1974
     45  CA        89.0580    0.2720   16.8740 C.3   100  ASN100      0.1688
     46  C         88.7080    0.7240   15.4630 C.2   100  ASN100      0.2292
     47  O         88.9670    1.8700   15.0930 O.2   100  ASN100     -0.2864
     48  CB        87.7510   -0.0110   17.6210 C.3   100  ASN100      0.1181
     49  CG        87.9680   -0.6410   18.9780 C.2   100  ASN100      0.2629
     50  OD1       88.8170   -1.5180   19.1430 O.2   100  ASN100     -0.2716
     51  ND2       87.1780   -0.2150   19.9560 N.am  100  ASN100     -0.0877
     52  N         88.2410    5.9680   18.0600 N.3   104  TRP104     -0.1241
     53  CA        88.7950    5.8500   19.4070 C.3   104  TRP104      0.1605
     54  C         87.8860    4.9700   20.2550 C.2   104  TRP104      0.2264
     55  O         86.7130    5.2870   20.4560 O.2   104  TRP104     -0.2867
     56  CB        88.9410    7.2320   20.0500 C.3   104  TRP104      0.0550
     57  CG        89.5540    7.2030   21.4240 C.ar  104  TRP104      0.0003
     58  CD1       88.9150    6.9490   22.6060 C.ar  104  TRP104      0.0946
     59  CD2       90.9300    7.4280   21.7520 C.ar  104  TRP104      0.0152
     60  NE1       89.8090    7.0060   23.6490 N.ar  104  TRP104     -0.2442
     61  CE2       91.0520    7.2970   23.1540 C.ar  104  TRP104      0.0810
     62  CE3       92.0730    7.7260   20.9980 C.ar  104  TRP104      0.0012
     63  CZ2       92.2740    7.4560   23.8190 C.ar  104  TRP104      0.0191
     64  CZ3       93.2870    7.8830   21.6600 C.ar  104  TRP104      0.0001
     65  CH2       93.3760    7.7480   23.0570 C.ar  104  TRP104      0.0015
     66  N         94.2900    9.5330   26.6420 N.3   110  LEU110     -0.1245
     67  CA        95.6000    9.3890   26.0240 C.3   110  LEU110      0.1561
     68  C         96.6410    9.3020   27.1300 C.2   110  LEU110      0.2260
     69  O         97.5840    8.5150   27.0470 O.2   110  LEU110     -0.2867
     70  CB        95.9100   10.5880   25.1250 C.3   110  LEU110      0.0270
     71  CG        97.3280   10.6070   24.5450 C.3   110  LEU110      0.0019
     72  CD1       97.5300    9.4110   23.6250 C.3   110  LEU110      0.0001
     73  CD2       97.5460   11.9090   23.7820 C.3   110  LEU110      0.0001
     74  N        101.0780    8.2660   16.4130 N.3   129  SER129     -0.1202
     75  CA       100.6670    8.7270   15.0870 C.3   129  SER129      0.2020
     76  C         99.1750    9.0290   15.1500 C.2   129  SER129      0.2619
     77  O         98.3540    8.4100   14.4650 O.2   129  SER129     -0.2717
     78  CB       100.9490    7.6480   14.0410 C.3   129  SER129      0.2103
     79  OG       102.3420    7.5220   13.8110 O.3   129  SER129     -0.2182
     80  N         98.8360    9.9990   15.9850 N.am  130  LEU130     -0.1965
     81  CA        97.4530   10.3780   16.2010 C.3   130  LEU130      0.1728
     82  C         97.4170   11.7160   16.9120 C.2   130  LEU130      0.2617
     83  O         98.4520   12.2400   17.3300 O.2   130  LEU130     -0.2715
     84  CB        96.7680    9.3130   17.0710 C.3   130  LEU130      0.0311
     85  CG        97.5300    8.8870   18.3360 C.3   130  LEU130      0.0022
     86  CD1       97.4200    9.9610   19.4080 C.3   130  LEU130      0.0001
     87  CD2       96.9620    7.5720   18.8520 C.3   130  LEU130      0.0001
     88  N         96.2200   12.2680   17.0520 N.am  131  GLY131     -0.1940
     89  CA        96.0980   13.5350   17.7390 C.3   131  GLY131      0.2014
     90  C         94.7100   14.1230   17.6550 C.2   131  GLY131      0.2639
     91  O         93.7940   13.5310   17.0810 O.2   131  GLY131     -0.2714
     92  N         94.5660   15.3020   18.2430 N.am  132  GLY132     -0.1939
     93  CA        93.2940   15.9950   18.2410 C.3   132  GLY132      0.2014
     94  C         93.5640   17.4830   18.2700 C.2   132  GLY132      0.2640
     95  O         94.7010   17.9070   18.4470 O.2   132  GLY132     -0.2714
     96  N         92.5190   18.2820   18.1080 N.am  133  SER133     -0.1935
     97  CA        92.6830   19.7280   18.1090 C.3   133  SER133      0.2055
     98  C         92.7040   20.3210   19.5130 C.2   133  SER133      0.2643
     99  O         93.2110   21.4220   19.7150 O.2   133  SER133     -0.2714
    100  CB        91.5580   20.3690   17.2950 C.3   133  SER133      0.2130
    101  OG        90.2980   19.9050   17.7430 O.3   133  SER133     -0.2179
    102  N         92.1620   19.5850   20.4790 N.am  134  GLY134     -0.1954
    103  CA        92.1150   20.0740   21.8450 C.3   134  GLY134      0.1869
    104  C         93.3850   19.9080   22.6580 C.2   134  GLY134      0.2309
    105  O         94.1990   19.0200   22.4000 O.2   134  GLY134     -0.2863
    106  N         96.9170   17.2420   30.5570 N.3   139  GLU139     -0.1245
    107  CA        97.7480   16.5350   29.5830 C.3   139  GLU139      0.1567
    108  C         99.1490   17.1220   29.5180 C.2   139  GLU139      0.2260
    109  O        100.1470   16.3970   29.5810 O.2   139  GLU139     -0.2867
    110  CB        97.1500   16.6120   28.1790 C.3   139  GLU139      0.0388
    111  CG        95.9640   15.7290   27.9220 C.3   139  GLU139      0.1160
    112  CD        95.8610   15.3600   26.4550 C.2   139  GLU139      0.3649
    113  OE1       96.0250   16.2580   25.5940 O.co2 139  GLU139     -0.2457
    114  OE2       95.6200   14.1690   26.1660 O.co2 139  GLU139     -0.2457
    115  N        102.7170   12.7310   15.5510 N.3   156  ALA156     -0.1245
    116  CA       102.4510   13.2850   14.2240 C.3   156  ALA156      0.1562
    117  C        101.8800   14.7050   14.2730 C.2   156  ALA156      0.2260
    118  O        101.0160   15.0090   15.0930 O.2   156  ALA156     -0.2867
    119  CB       101.4940   12.3650   13.4730 C.3   156  ALA156      0.0290
    120  N         99.9590   16.1250   12.0790 N.3   158  GLY158     -0.1210
    121  CA        98.6160   16.2450   11.5320 C.3   158  GLY158      0.1956
    122  C         98.6360   16.4560   10.0290 C.2   158  GLY158      0.2611
    123  O         99.6040   16.9940    9.4910 O.2   158  GLY158     -0.2717
    124  N         97.5530   16.0600    9.3620 N.am  159  ASN159     -0.1974
    125  CA        97.4520   16.1420    7.9050 C.3   159  ASN159      0.1688
    126  C         96.4430   17.1480    7.3700 C.2   159  ASN159      0.2292
    127  O         95.9990   17.0060    6.2340 O.2   159  ASN159     -0.2864
    128  CB        97.0730   14.7680    7.3550 C.3   159  ASN159      0.1181
    129  CG        97.8940   13.6560    7.9600 C.2   159  ASN159      0.2629
    130  OD1       97.3550   12.6230    8.3670 O.2   159  ASN159     -0.2716
    131  ND2       99.2020   13.8530    8.0190 N.am  159  ASN159     -0.0877
    132  N         98.0550   20.3160   16.4160 N.3   166  SER166     -0.1202
    133  CA        97.4450   19.0400   16.7550 C.3   166  SER166      0.2020
    134  C         98.2050   18.6030   17.9980 C.2   166  SER166      0.2619
    135  O         99.4080   18.8440   18.1130 O.2   166  SER166     -0.2717
    136  CB        97.6190   18.0170   15.6300 C.3   166  SER166      0.2103
    137  OG        96.7660   18.3300   14.5400 O.3   166  SER166     -0.2182
    138  N         97.4890   18.0000   18.9360 N.am  167  TYR167     -0.1962
    139  CA        98.0740   17.5350   20.1850 C.3   167  TYR167      0.1756
    140  C         97.9400   16.0200   20.2150 C.2   167  TYR167      0.2461
    141  O         96.9710   15.4690   19.6890 O.2   167  TYR167     -0.2730
    142  CB        97.3310   18.1890   21.3520 C.3   167  TYR167      0.0574
    143  CG        97.4800   19.6950   21.3460 C.ar  167  TYR167     -0.0198
    144  CD1       98.5670   20.3080   21.9670 C.ar  167  TYR167     -0.0009
    145  CD2       96.5740   20.5000   20.6550 C.ar  167  TYR167     -0.0009
    146  CE1       98.7550   21.6890   21.8980 C.ar  167  TYR167      0.0417
    147  CE2       96.7530   21.8820   20.5770 C.ar  167  TYR167      0.0417
    148  CZ        97.8440   22.4670   21.1990 C.ar  167  TYR167      0.1957
    149  OH        98.0340   23.8270   21.1210 O.3   167  TYR167     -0.2866
    150  N         98.8600   15.3220   20.8990 N.am  168  PRO168     -0.2727
    151  CA       100.0240   15.7670   21.6770 C.3   168  PRO168      0.1402
    152  C        101.2400   16.3750   20.9800 C.2   168  PRO168      0.2269
    153  O        102.1150   16.9330   21.6460 O.2   168  PRO168     -0.2865
    154  CB       100.3990   14.5090   22.4530 C.3   168  PRO168      0.0296
    155  CG       100.1380   13.4300   21.4290 C.3   168  PRO168      0.0237
    156  CD        98.7920   13.8470   20.8550 C.3   168  PRO168      0.0939
    157  N        100.7740   19.5530    8.3820 N.3   191  GLN191     -0.1245
    158  CA       100.5310   20.7990    9.0950 C.3   191  GLN191      0.1566
    159  C        101.8390   21.4990    9.4380 C.2   191  GLN191      0.2260
    160  O        102.8100   20.8700    9.8630 O.2   191  GLN191     -0.2867
    161  CB        99.7020   20.5320   10.3570 C.3   191  GLN191      0.0367
    162  CG        98.2180   20.3740   10.0500 C.3   191  GLN191      0.0905
    163  CD        97.4330   19.7430   11.1790 C.2   191  GLN191      0.2608
    164  OE1       97.4460   20.2210   12.3190 O.2   191  GLN191     -0.2717
    165  NE2       96.7320   18.6650   10.8660 N.am  191  GLN191     -0.0878
    166  N        100.0530    7.3910    3.0800 N.3   366  ASN366     -0.1225
    167  CA       100.6090    8.7460    3.1600 C.3   366  ASN366      0.1785
    168  C        100.2040    9.2820    4.5300 C.2   366  ASN366      0.2598
    169  O         99.1530    8.9120    5.0550 O.2   366  ASN366     -0.2718
    170  CB        99.9690    9.7090    2.1570 C.3   366  ASN366      0.1169
    171  CG       100.1110    9.2740    0.7250 C.2   366  ASN366      0.2627
    172  OD1       99.2750    9.6290   -0.1120 O.2   366  ASN366     -0.2716
    173  ND2      101.1640    8.5360    0.4180 N.am  366  ASN366     -0.0877
    174  N        101.0160   10.1660    5.0980 N.am  367  GLY367     -0.1942
    175  CA       100.6410   10.7620    6.3650 C.3   367  GLY367      0.2014
    176  C        101.7510   11.1130    7.3250 C.2   367  GLY367      0.2640
    177  O        102.8560   10.5700    7.2580 O.2   367  GLY367     -0.2714
    178  N        101.4650   12.0550    8.2170 N.am  368  THR368     -0.1936
    179  CA       102.4470   12.4010    9.2210 C.3   368  THR368      0.2028
    180  C        102.5490   11.1770   10.1360 C.2   368  THR368      0.2643
    181  O        103.5300   11.0180   10.8540 O.2   368  THR368     -0.2714
    182  CB       102.0480   13.6720   10.0140 C.3   368  THR368      0.1808
    183  OG1      100.6780   13.5910   10.4230 O.3   368  THR368     -0.2208
    184  CG2      102.2480   14.9150    9.1440 C.3   368  THR368      0.0379
    185  N        101.5470   10.2970   10.0780 N.am  369  SER369     -0.1935
    186  CA       101.5520    9.0660   10.8750 C.3   369  SER369      0.2055
    187  C        102.5950    8.1010   10.3820 C.2   369  SER369      0.2642
    188  O        102.9860    7.1960   11.1080 O.2   369  SER369     -0.2714
    189  CB       100.0030    8.5930   10.8540 C.3   369  SER369      0.2130
    190  OG        99.0370    9.2730   11.4070 O.3   369  SER369     -0.2179
    191  N        102.9940    8.2620    9.1270 N.am  370  MET370     -0.1976
    192  CA       104.0000    7.3960    8.5240 C.3   370  MET370      0.1605
    193  C        105.3880    7.9630    8.8010 C.2   370  MET370      0.2287
    194  O        106.3540    7.2210    8.9670 O.2   370  MET370     -0.2864
    195  CB       103.7610    7.2770    7.0110 C.3   370  MET370      0.0413
    196  CG       102.6190    6.3270    6.5960 C.3   370  MET370      0.0598
    197  SD       100.9590    6.7190    7.2220 S.3   370  MET370     -0.1393
    198  CE       100.8540    5.5580    8.6060 C.3   370  MET370      0.0692
@<TRIPOS>BOND
     1   172   171    2
     2   173   171   am
     3   171   170    1
     4   170   167    1
     5   166   167    1
     6   167   168    1
     7   168   169    2
     8   168   174   am
     9   174   175    1
    10   127   126    2
    11   175   176    1
    12   196   195    1
    13   196   197    1
    14   195   192    1
    15   197   198    1
    16   177   176    2
    17   176   178   am
    18   128   125    1
    19   128   129    1
    20   126   125    1
    21   125   124    1
    22   129   131   am
    23   129   130    2
    24   178   179    1
    25   157   158    1
    26   192   193    1
    27   192   191    1
    28   193   194    2
    29   158   159    1
    30   158   161    1
    31   191   187   am
    32   184   182    1
    33   179   182    1
    34   179   180    1
    35   124   122   am
    36   159   160    2
    37   123   122    2
    38   182   183    1
    39   122   121    1
    40   162   161    1
    41   162   163    1
    42   185   180   am
    43   185   186    1
    44   180   181    2
    45    15    16    1
    46    30    32   ar
    47    30    28   ar
    48   187   186    1
    49   187   188    2
    50    23    24    1
    51    24    27    1
    52    24    25    1
    53    32    31   ar
    54   189   186    1
    55   189   190    1
    56   165   163   am
    57    27    28    1
    58   163   164    2
    59    28    29   ar
    60    26    25    2
    61    17    16    1
    62    17    18    2
    63    16    19    1
    64   121   120    1
    65    31    29   ar
    66    19    20    1
    67   119   116    1
    68    21    20    2
    69    20    22   am
    70    79    78    1
    71    14    13    1
    72    78    75    1
    73   116   117    1
    74   116   115    1
    75   117   118    2
    76    77    76    2
    77   137   136    1
    78     7     6   ar
    79    13    10    1
    80     8     6   ar
    81    75    76    1
    82    75    74    1
    83    47    46    2
    84    76    80   am
    85     6     5    1
    86    46    45    1
    87   136   133    1
    88    12    11    2
    89    80    81    1
    90    81    82    1
    91    81    84    1
    92    10    11    1
    93    10     9    1
    94   132   133    1
    95     9     3   am
    96    40    42   ar
    97    40    38   ar
    98     5     2    1
    99    42    43   ar
   100   133   134    1
   101    45    44    1
   102    45    48    1
   103    82    88   am
   104    82    83    2
   105    37    38    1
   106    37    34    1
   107    88    89    1
   108    84    85    1
   109    91    90    2
   110    38    39   ar
   111   100   101    1
   112   100    97    1
   113    43    41   ar
   114    44    35   am
   115    36    35    2
   116    48    49    1
   117    90    89    1
   118    90    92   am
   119    35    34    1
   120     3     2    1
   121     3     4    2
   122    39    41   ar
   123     2     1    1
   124   134   135    2
   125   134   138   am
   126    52    53    1
   127    96    97    1
   128    96    94   am
   129    97    98    1
   130    34    33    1
   131    93    92    1
   132    93    94    1
   133    94    95    2
   134    85    87    1
   135    85    86    1
   136   138   139    1
   137    49    50    2
   138    49    51   am
   139    53    56    1
   140    53    54    1
   141    98    99    2
   142    98   102   am
   143   141   140    2
   144    56    57    1
   145   139   140    1
   146   139   142    1
   147   140   150   am
   148    54    55    2
   149   102   103    1
   150   147   145   ar
   151   147   148   ar
   152   145   143   ar
   153   156   150    1
   154   156   155    1
   155   150   151    1
   156   152   153    2
   157   152   151    1
   158    62    64   ar
   159    62    59   ar
   160   149   148    1
   161   148   146   ar
   162   143   142    1
   163   143   144   ar
   164    57    59   ar
   165    57    58   ar
   166   155   154    1
   167    64    65   ar
   168   151   154    1
   169    59    61   ar
   170   103   104    1
   171   146   144   ar
   172   105   104    2
   173    58    60   ar
   174    65    63   ar
   175    61    60   ar
   176    61    63   ar
   177    72    71    1
   178    73    71    1
   179    71    70    1
   180    70    67    1
   181   113   112   ar
   182    67    66    1
   183    67    68    1
   184   114   112   ar
   185   112   111    1
   186    69    68    2
   187   111   110    1
   188   110   107    1
   189   108   109    2
   190   108   107    1
   191   107   106    1
