@<TRIPOS>MOLECULE
tmp/1wvxA00.pdb
 141 130 0 0 0
SMALL
GASTEIGER

@<TRIPOS>ATOM
      1  N         27.9430   35.0440    4.8330 N.3    18  LEU18      -0.1231
      2  CA        28.9200   35.8470    5.5740 C.3    18  LEU18       0.1693
      3  C         29.4900   35.1590    6.8180 C.2    18  LEU18       0.2592
      4  O         30.6330   35.4120    7.2040 O.2    18  LEU18      -0.2718
      5  CB        28.2800   37.1800    5.9840 C.3    18  LEU18       0.0284
      6  CG        27.5710   37.9590    4.8700 C.3    18  LEU18       0.0019
      7  CD1       26.8020   39.1100    5.4690 C.3    18  LEU18       0.0001
      8  CD2       28.5770   38.4580    3.8600 C.3    18  LEU18       0.0001
      9  N         28.6920   34.3030    7.4500 N.am   19  GLY19      -0.1957
     10  CA        29.1500   33.6090    8.6410 C.3    19  GLY19       0.1869
     11  C         28.1460   32.5900    9.1330 C.2    19  GLY19       0.2309
     12  O         26.9810   32.6390    8.7550 O.2    19  GLY19      -0.2863
     13  N         24.1720   33.7580    8.5680 N.3    26  VAL26      -0.1245
     14  CA        23.9680   35.0930    8.0190 C.3    26  VAL26       0.1561
     15  C         24.4450   35.1610    6.5730 C.2    26  VAL26       0.2260
     16  O         25.6240   34.9830    6.2790 O.2    26  VAL26      -0.2867
     17  CB        24.7030   36.1900    8.8480 C.3    26  VAL26       0.0252
     18  CG1       24.0520   36.3440   10.2030 C.3    26  VAL26       0.0019
     19  CG2       26.1550   35.8240    9.0370 C.3    26  VAL26       0.0019
     20  N         24.3120   37.3730    2.7730 N.3    28  LYS28      -0.1245
     21  CA        24.1930   38.7210    2.2380 C.3    28  LYS28       0.1561
     22  C         22.9180   38.7200    1.4040 C.2    28  LYS28       0.2260
     23  O         22.5690   37.6940    0.8340 O.2    28  LYS28      -0.2867
     24  CB        25.3900   39.0390    1.3380 C.3    28  LYS28       0.0271
     25  CG        25.4710   40.4940    0.8740 C.3    28  LYS28       0.0035
     26  CD        26.5730   40.6970   -0.1580 C.3    28  LYS28       0.0206
     27  CE        27.9310   40.3110    0.3890 C.3    28  LYS28       0.1093
     28  NZ        28.9780   40.2860   -0.6740 N.3    28  LYS28      -0.1314
     29  N         21.8900   42.3490    5.4390 N.3    39  ALA39      -0.1245
     30  CA        22.4210   41.1090    5.9570 C.3    39  ALA39       0.1562
     31  C         21.2140   40.3050    6.4240 C.2    39  ALA39       0.2260
     32  O         20.3340   40.8350    7.1050 O.2    39  ALA39      -0.2867
     33  CB        23.3770   41.3890    7.1190 C.3    39  ALA39       0.0290
     34  N         20.0050   37.2970    8.7100 N.3    41  LYS41      -0.1245
     35  CA        20.3980   36.3490    9.7570 C.3    41  LYS41       0.1561
     36  C         19.2870   35.3230    9.9490 C.2    41  LYS41       0.2260
     37  O         18.1990   35.6640   10.4150 O.2    41  LYS41      -0.2867
     38  CB        20.6560   37.0580   11.0840 C.3    41  LYS41       0.0271
     39  CG        21.2530   36.1460   12.1640 C.3    41  LYS41       0.0035
     40  CD        21.3940   36.8860   13.4870 C.3    41  LYS41       0.0206
     41  CE        22.1150   36.0670   14.5350 C.3    41  LYS41       0.1093
     42  NZ        22.1460   36.7930   15.8440 N.3    41  LYS41      -0.1314
     43  N         24.5690   48.2240   15.0270 N.3    76  ILE76      -0.1245
     44  CA        23.8960   47.6470   13.8630 C.3    76  ILE76       0.1561
     45  C         22.4040   47.9400   13.9970 C.2    76  ILE76       0.2260
     46  O         21.8540   47.8720   15.0940 O.2    76  ILE76      -0.2867
     47  CB        24.1300   46.1010   13.7790 C.3    76  ILE76       0.0252
     48  CG1       23.6950   45.5770   12.4130 C.3    76  ILE76       0.0019
     49  CG2       23.3450   45.3680   14.8680 C.3    76  ILE76       0.0019
     50  CD1       24.6710   45.8860   11.3130 C.3    76  ILE76       0.0001
     51  N         19.2340   42.5180    8.7900 N.3    92  LEU92      -0.1231
     52  CA        20.0560   43.5090    9.4680 C.3    92  LEU92       0.1693
     53  C         20.8770   44.3540    8.5220 C.2    92  LEU92       0.2592
     54  O         21.1010   43.9850    7.3740 O.2    92  LEU92      -0.2718
     55  CB        20.9990   42.8010   10.4370 C.3    92  LEU92       0.0284
     56  CG        20.3350   41.9530   11.5180 C.3    92  LEU92       0.0019
     57  CD1       21.1920   40.7150   11.8070 C.3    92  LEU92       0.0001
     58  CD2       20.1260   42.8130   12.7680 C.3    92  LEU92       0.0001
     59  N         21.3380   45.4910    9.0330 N.am   93  GLU93      -0.1966
     60  CA        22.1770   46.4130    8.2790 C.3    93  GLU93       0.1733
     61  C         23.4500   45.6640    7.9190 C.2    93  GLU93       0.2616
     62  O         23.9250   44.8060    8.6710 O.2    93  GLU93      -0.2715
     63  CB        22.4990   47.6480    9.1340 C.3    93  GLU93       0.0429
     64  CG        23.6380   48.5350    8.6250 C.3    93  GLU93       0.1163
     65  CD        23.7990   49.7980    9.4610 C.2    93  GLU93       0.3649
     66  OE1       23.7270   49.6900   10.6990 O.co2  93  GLU93      -0.2457
     67  OE2       23.9990   50.8940    8.8800 O.co2  93  GLU93      -0.2457
     68  N         24.0020   46.0010    6.7670 N.am   94  LEU94      -0.1963
     69  CA        25.1960   45.3430    6.2910 C.3    94  LEU94       0.1728
     70  C         26.4840   46.1060    6.5880 C.2    94  LEU94       0.2616
     71  O         26.6620   47.2480    6.1640 O.2    94  LEU94      -0.2715
     72  CB        25.0670   45.0970    4.7810 C.3    94  LEU94       0.0311
     73  CG        26.3120   44.5100    4.1160 C.3    94  LEU94       0.0022
     74  CD1       26.5640   43.1400    4.7050 C.3    94  LEU94       0.0001
     75  CD2       26.1480   44.4270    2.6240 C.3    94  LEU94       0.0001
     76  N         27.3820   45.4660    7.3270 N.am   95  VAL95      -0.1963
     77  CA        28.6680   46.0640    7.6430 C.3    95  VAL95       0.1727
     78  C         29.6700   45.3950    6.7040 C.2    95  VAL95       0.2616
     79  O         30.4120   44.4900    7.0860 O.2    95  VAL95      -0.2715
     80  CB        29.0530   45.8430    9.1420 C.3    95  VAL95       0.0290
     81  CG1       28.2100   46.7570   10.0270 C.3    95  VAL95       0.0023
     82  CG2       28.8310   44.4020    9.5490 C.3    95  VAL95       0.0023
     83  N         29.6520   45.8490    5.4530 N.am   96  ALA96      -0.1977
     84  CA        30.5140   45.3210    4.4080 C.3    96  ALA96       0.1597
     85  C         31.9970   45.3810    4.7560 C.2    96  ALA96       0.2287
     86  O         32.8090   44.6890    4.1470 O.2    96  ALA96      -0.2864
     87  CB        30.2510   46.0590    3.1120 C.3    96  ALA96       0.0319
     88  N         33.3650   44.1970    7.2610 N.3    98  GLY98      -0.1210
     89  CA        33.7790   42.9980    7.9640 C.3    98  GLY98       0.1956
     90  C         34.2750   43.3000    9.3700 C.2    98  GLY98       0.2611
     91  O         33.9160   44.3230    9.9590 O.2    98  GLY98      -0.2717
     92  N         35.1070   42.4170    9.9130 N.am   99  GLU99      -0.1979
     93  CA        35.6310   42.5900   11.2630 C.3    99  GLU99       0.1602
     94  C         36.7690   43.6120   11.3490 C.2    99  GLU99       0.2287
     95  O         37.6860   43.6000   10.5340 O.2    99  GLU99      -0.2864
     96  CB        36.0880   41.2340   11.8150 C.3    99  GLU99       0.0415
     97  CG        34.9630   40.2230   12.0480 C.3    99  GLU99       0.1163
     98  CD        35.4910   38.8430   12.4240 C.2    99  GLU99       0.3649
     99  OE1       36.6550   38.7620   12.8690 O.co2  99  GLU99      -0.2457
    100  OE2       34.7450   37.8440   12.2860 O.co2  99  GLU99      -0.2457
    101  N         35.3550   39.7980   17.4690 N.3   142  GLU142     -0.1231
    102  CA        34.4990   39.3470   16.3770 C.3   142  GLU142      0.1699
    103  C         33.1810   40.0990   16.2520 C.2   142  GLU142      0.2592
    104  O         32.5600   40.0980   15.1830 O.2   142  GLU142     -0.2718
    105  CB        34.2280   37.8460   16.4930 C.3   142  GLU142      0.0402
    106  CG        35.1820   36.9860   15.6550 C.3   142  GLU142      0.1161
    107  CD        34.9300   35.4960   15.8300 C.2   142  GLU142      0.3649
    108  OE1       35.2710   34.7230   14.9030 O.co2 142  GLU142     -0.2457
    109  OE2       34.3980   35.1010   16.8950 O.co2 142  GLU142     -0.2457
    110  N         32.7440   40.7420   17.3320 N.am  143  ASN143     -0.1974
    111  CA        31.4960   41.4950   17.2710 C.3   143  ASN143      0.1688
    112  C         31.6920   42.9780   16.9730 C.2   143  ASN143      0.2292
    113  O         30.7360   43.7590   16.9820 O.2   143  ASN143     -0.2864
    114  CB        30.6730   41.3070   18.5490 C.3   143  ASN143      0.1181
    115  CG        29.8340   40.0460   18.5080 C.2   143  ASN143      0.2629
    116  OD1       29.4260   39.6080   17.4370 O.2   143  ASN143     -0.2716
    117  ND2       29.5560   39.4660   19.6740 N.am  143  ASN143     -0.0877
    118  N         32.3750   45.1540   14.1040 N.3   145  MET145     -0.1245
    119  CA        32.4120   45.2300   12.6430 C.3   145  MET145      0.1570
    120  C         32.6510   46.6380   12.0880 C.2   145  MET145      0.2261
    121  O         32.6080   47.6290   12.8160 O.2   145  MET145     -0.2867
    122  CB        31.1000   44.6970   12.0570 C.3   145  MET145      0.0387
    123  CG        30.7030   43.3250   12.5650 C.3   145  MET145      0.0595
    124  SD        31.8700   42.0550   12.0460 S.3   145  MET145     -0.1393
    125  CE        31.2110   41.6640   10.4170 C.3   145  MET145      0.0692
    126  N         27.7230   44.4660   16.6600 N.3   159  ILE159     -0.1231
    127  CA        26.6770   43.5490   16.2080 C.3   159  ILE159      0.1692
    128  C         26.4210   42.4820   17.2490 C.2   159  ILE159      0.2592
    129  O         27.0230   42.4860   18.3230 O.2   159  ILE159     -0.2718
    130  CB        27.0590   42.8100   14.9160 C.3   159  ILE159      0.0266
    131  CG1       28.3760   42.0510   15.1440 C.3   159  ILE159      0.0019
    132  CG2       27.1040   43.7790   13.7360 C.3   159  ILE159      0.0020
    133  CD1       28.7780   41.1180   13.9970 C.3   159  ILE159      0.0001
    134  N         25.5290   41.5580   16.8910 N.am  160  ASP160     -0.1974
    135  CA        25.1330   40.4150   17.7120 C.3   160  ASP160      0.1709
    136  C         24.5530   40.7180   19.0760 C.2   160  ASP160      0.2293
    137  O         25.2660   40.7900   20.0770 O.2   160  ASP160     -0.2864
    138  CB        26.2970   39.4390   17.8600 C.3   160  ASP160      0.1436
    139  CG        26.0440   38.1310   17.1290 C.2   160  ASP160      0.3671
    140  OD1       24.9410   38.0040   16.5420 O.co2 160  ASP160     -0.2456
    141  OD2       26.9340   37.2380   17.1400 O.co2 160  ASP160     -0.2456
@<TRIPOS>BOND
     1    28    27    1
     2    26    27    1
     3    26    25    1
     4    23    22    2
     5    25    24    1
     6    24    21    1
     7    22    21    1
     8    21    20    1
     9    75    73    1
    10    87    84    1
    11     8     6    1
    12    73    74    1
    13    73    72    1
    14    86    85    2
    15    84    85    1
    16    84    83    1
    17    72    69    1
    18     1     2    1
    19     6     7    1
    20     6     5    1
    21    29    30    1
    22    83    78   am
    23     2     5    1
    24     2     3    1
    25    30    31    1
    26    30    33    1
    27    71    70    2
    28    16    15    2
    29    69    70    1
    30    69    68    1
    31    31    32    2
    32    15    14    1
    33    70    76   am
    34    78    79    2
    35    78    77    1
    36    68    61   am
    37     3     4    2
    38     3     9   am
    39    88    89    1
    40    76    77    1
    41    54    53    2
    42     9    10    1
    43    77    80    1
    44    61    60    1
    45    61    62    2
    46    89    90    1
    47    14    13    1
    48    14    17    1
    49    60    59    1
    50    60    63    1
    51    53    59   am
    52    53    52    1
    53    64    63    1
    54    64    65    1
    55    10    11    1
    56    34    35    1
    57    12    11    2
    58    51    52    1
    59    17    19    1
    60    17    18    1
    61    67    65   ar
    62    80    82    1
    63    80    81    1
    64    90    92   am
    65    90    91    2
    66    65    66   ar
    67    52    55    1
    68    35    36    1
    69    35    38    1
    70    92    93    1
    71    36    37    2
    72   125   124    1
    73    55    56    1
    74    95    94    2
    75    38    39    1
    76    93    94    1
    77    93    96    1
    78    50    48    1
    79    56    57    1
    80    56    58    1
    81    96    97    1
    82   124   123    1
    83    97    98    1
    84   122   123    1
    85   122   119    1
    86   120   119    1
    87   120   121    2
    88    39    40    1
    89   100    98   ar
    90    48    47    1
    91    98    99   ar
    92   119   118    1
    93    40    41    1
    94   132   130    1
    95    47    44    1
    96    47    49    1
    97    44    45    1
    98    44    43    1
    99    45    46    2
   100   133   131    1
   101    41    42    1
   102   108   107   ar
   103   130   131    1
   104   130   127    1
   105   104   103    2
   106   106   107    1
   107   106   105    1
   108   107   109   ar
   109   127   126    1
   110   127   128    1
   111   103   102    1
   112   103   110   am
   113   102   105    1
   114   102   101    1
   115   140   139   ar
   116   134   128   am
   117   134   135    1
   118   112   113    2
   119   112   111    1
   120   139   141   ar
   121   139   138    1
   122   128   129    2
   123   111   110    1
   124   111   114    1
   125   116   115    2
   126   135   138    1
   127   135   136    1
   128   115   114    1
   129   115   117   am
   130   136   137    2
