@<TRIPOS>MOLECULE
tmp/1wvyA00.pdb
 167 156 0 0 0
SMALL
GASTEIGER

@<TRIPOS>ATOM
      1  N         24.4970   36.1380    4.8000 N.3    16  LEU16      -0.1231
      2  CA        25.6670   36.8430    5.3300 C.3    16  LEU16       0.1693
      3  C         26.3040   36.1430    6.5200 C.2    16  LEU16       0.2593
      4  O         27.5050   36.2860    6.7620 O.2    16  LEU16      -0.2718
      5  CB        25.2860   38.2730    5.7240 C.3    16  LEU16       0.0284
      6  CG        24.9480   39.2200    4.5680 C.3    16  LEU16       0.0019
      7  CD1       24.0410   40.3370    5.0680 C.3    16  LEU16       0.0001
      8  CD2       26.2210   39.7740    3.9610 C.3    16  LEU16       0.0001
      9  N         25.4970   35.3890    7.2570 N.am   17  GLY17      -0.1942
     10  CA        26.0000   34.6800    8.4170 C.3    17  GLY17       0.2014
     11  C         24.8940   33.9710    9.1790 C.2    17  GLY17       0.2640
     12  O         23.7040   34.2270    8.9530 O.2    17  GLY17      -0.2714
     13  N         25.2840   33.0790   10.0880 N.am   18  SER18      -0.1935
     14  CA        24.3230   32.3200   10.8830 C.3    18  SER18       0.2055
     15  C         24.6580   32.3250   12.3570 C.2    18  SER18       0.2643
     16  O         25.7980   32.5610   12.7460 O.2    18  SER18      -0.2714
     17  CB        24.2500   30.8620   10.4190 C.3    18  SER18       0.2130
     18  OG        23.5830   30.7350    9.1780 O.3    18  SER18      -0.2179
     19  N         23.6390   32.0560   13.1650 N.am   19  GLY19      -0.1954
     20  CA        23.7920   32.0020   14.6050 C.3    19  GLY19       0.1869
     21  C         22.9420   30.8650   15.1340 C.2    19  GLY19       0.2309
     22  O         22.1380   30.2960   14.3900 O.2    19  GLY19      -0.2863
     23  N         19.6230   32.6740   14.8540 N.3    22  ALA22      -0.1245
     24  CA        19.2950   33.5030   13.6980 C.3    22  ALA22       0.1562
     25  C         20.1200   33.2520   12.4520 C.2    22  ALA22       0.2260
     26  O         21.1430   32.5820   12.4750 O.2    22  ALA22      -0.2867
     27  CB        19.3990   34.9800   14.0770 C.3    22  ALA22       0.0290
     28  N         21.0830   35.8030    9.1480 N.3    24  VAL24      -0.1245
     29  CA        20.9220   37.0910    8.4920 C.3    24  VAL24       0.1561
     30  C         21.2330   36.9980    7.0060 C.2    24  VAL24       0.2260
     31  O         22.2660   36.4670    6.5980 O.2    24  VAL24      -0.2867
     32  CB        21.8210   38.1650    9.1510 C.3    24  VAL24       0.0252
     33  CG1       21.6720   38.1070   10.6730 C.3    24  VAL24       0.0019
     34  CG2       23.2570   37.9540    8.7710 C.3    24  VAL24       0.0019
     35  N         20.1520   44.4470    5.8190 N.3    37  ALA37      -0.1245
     36  CA        20.5680   43.1820    6.4060 C.3    37  ALA37       0.1562
     37  C         19.3750   42.6170    7.1610 C.2    37  ALA37       0.2260
     38  O         19.0690   43.0540    8.2650 O.2    37  ALA37      -0.2867
     39  CB        21.7330   43.4030    7.3560 C.3    37  ALA37       0.0290
     40  N         17.6290   40.0270    9.3800 N.3    39  LYS39      -0.1245
     41  CA        17.9900   39.0170   10.3610 C.3    39  LYS39       0.1561
     42  C         16.7680   38.1700   10.6660 C.2    39  LYS39       0.2260
     43  O         15.7710   38.6680   11.1970 O.2    39  LYS39      -0.2867
     44  CB        18.4930   39.6770   11.6460 C.3    39  LYS39       0.0271
     45  CG        18.5820   38.7390   12.8330 C.3    39  LYS39       0.0035
     46  CD        19.1950   39.4350   14.0400 C.3    39  LYS39       0.0206
     47  CE        19.2800   38.4960   15.2350 C.3    39  LYS39       0.1093
     48  NZ        19.8250   39.1540   16.4450 N.3    39  LYS39      -0.1314
     49  N         14.7160   42.6100   22.3590 N.3    61  GLU61      -0.1245
     50  CA        15.7000   43.0390   21.3620 C.3    61  GLU61       0.1567
     51  C         15.1350   44.0780   20.3930 C.2    61  GLU61       0.2260
     52  O         15.8660   44.9370   19.9060 O.2    61  GLU61      -0.2867
     53  CB        16.2410   41.8340   20.5700 C.3    61  GLU61       0.0388
     54  CG        16.9690   42.1990   19.2670 C.3    61  GLU61       0.1160
     55  CD        17.6110   41.0040   18.5680 C.2    61  GLU61       0.3649
     56  OE1       16.9720   39.9370   18.4720 O.co2  61  GLU61      -0.2457
     57  OE2       18.7600   41.1360   18.0970 O.co2  61  GLU61      -0.2457
     58  N         23.9600   50.0470   15.0970 N.3    74  ILE74      -0.1245
     59  CA        23.1660   49.6410   13.9400 C.3    74  ILE74       0.1561
     60  C         21.7840   50.2220   14.1480 C.2    74  ILE74       0.2260
     61  O         21.3810   50.4820   15.2810 O.2    74  ILE74      -0.2867
     62  CB        23.0390   48.0890   13.8510 C.3    74  ILE74       0.0252
     63  CG1       22.6120   47.6600   12.4470 C.3    74  ILE74       0.0019
     64  CG2       21.9820   47.5800   14.8350 C.3    74  ILE74       0.0019
     65  CD1       23.6900   47.8340   11.3900 C.3    74  ILE74       0.0001
     66  N         17.5190   45.1750    9.2660 N.3    90  LEU90      -0.1231
     67  CA        18.5730   45.9790    9.8630 C.3    90  LEU90       0.1693
     68  C         19.4610   46.7240    8.8750 C.2    90  LEU90       0.2592
     69  O         19.6060   46.3350    7.7140 O.2    90  LEU90      -0.2718
     70  CB        19.4730   45.0790   10.7100 C.3    90  LEU90       0.0284
     71  CG        18.8850   44.3620   11.9190 C.3    90  LEU90       0.0019
     72  CD1       19.9290   43.4480   12.5490 C.3    90  LEU90       0.0001
     73  CD2       18.4160   45.4110   12.9140 C.3    90  LEU90       0.0001
     74  N         20.0830   47.7880    9.3630 N.am   91  GLU91      -0.1966
     75  CA        20.9910   48.5590    8.5390 C.3    91  GLU91       0.1733
     76  C         22.0810   47.6130    8.0520 C.2    91  GLU91       0.2616
     77  O         22.5610   46.7750    8.8090 O.2    91  GLU91      -0.2715
     78  CB        21.6080   49.6780    9.3650 C.3    91  GLU91       0.0429
     79  CG        22.7550   50.3510    8.6810 C.3    91  GLU91       0.1163
     80  CD        23.4680   51.3110    9.5820 C.2    91  GLU91       0.3649
     81  OE1       23.3430   51.1660   10.8120 O.co2  91  GLU91      -0.2457
     82  OE2       24.1670   52.2020    9.0640 O.co2  91  GLU91      -0.2457
     83  N         22.4700   47.7500    6.7920 N.am   92  LEU92      -0.1963
     84  CA        23.4990   46.8920    6.2120 C.3    92  LEU92       0.1728
     85  C         24.8850   47.5180    6.2740 C.2    92  LEU92       0.2616
     86  O         25.0740   48.6420    5.8350 O.2    92  LEU92      -0.2715
     87  CB        23.1590   46.5920    4.7540 C.3    92  LEU92       0.0311
     88  CG        24.2850   45.9270    3.9630 C.3    92  LEU92       0.0022
     89  CD1       24.6690   44.5900    4.5850 C.3    92  LEU92       0.0001
     90  CD2       23.8280   45.7280    2.5460 C.3    92  LEU92       0.0001
     91  N         25.8580   46.7820    6.7980 N.am   93  VAL93      -0.1963
     92  CA        27.2300   47.2770    6.9000 C.3    93  VAL93       0.1727
     93  C         28.1110   46.7130    5.7740 C.2    93  VAL93       0.2616
     94  O         27.8750   45.6050    5.2920 O.2    93  VAL93      -0.2715
     95  CB        27.8240   46.9110    8.2710 C.3    93  VAL93       0.0290
     96  CG1       29.3160   46.7800    8.1800 C.3    93  VAL93       0.0023
     97  CG2       27.4680   47.9820    9.2830 C.3    93  VAL93       0.0023
     98  N         29.1240   47.4630    5.3430 N.am   94  ALA94      -0.1977
     99  CA        29.9780   46.9790    4.2500 C.3    94  ALA94       0.1597
    100  C         31.4720   46.8860    4.5640 C.2    94  ALA94       0.2287
    101  O         32.2210   46.1960    3.8710 O.2    94  ALA94      -0.2864
    102  CB        29.7720   47.8490    3.0130 C.3    94  ALA94       0.0319
    103  N         33.0080   45.3460    6.9180 N.3    96  GLY96      -0.1210
    104  CA        33.4950   44.0980    7.4790 C.3    96  GLY96       0.1956
    105  C         33.8190   44.2390    8.9540 C.2    96  GLY96       0.2611
    106  O         33.3610   45.1710    9.6070 O.2    96  GLY96      -0.2717
    107  N         34.6100   43.3180    9.4930 N.am   97  GLU97      -0.1979
    108  CA        34.9750   43.3790   10.9030 C.3    97  GLU97       0.1602
    109  C         36.1200   44.3450   11.1340 C.2    97  GLU97       0.2287
    110  O         37.0710   44.3990   10.3560 O.2    97  GLU97      -0.2864
    111  CB        35.3580   41.9930   11.4220 C.3    97  GLU97       0.0415
    112  CG        34.1680   41.0780   11.6550 C.3    97  GLU97       0.1163
    113  CD        34.5550   39.7450   12.2800 C.2    97  GLU97       0.3649
    114  OE1       35.5810   39.7000   13.0020 O.co2  97  GLU97      -0.2457
    115  OE2       33.8170   38.7540   12.0670 O.co2  97  GLU97      -0.2457
    116  N         33.5540   40.3260   16.9510 N.3   140  GLU140     -0.1231
    117  CA        32.5910   39.9020   15.9350 C.3   140  GLU140      0.1699
    118  C         31.3960   40.8460   15.8220 C.2   140  GLU140      0.2592
    119  O         30.7700   40.9290   14.7690 O.2   140  GLU140     -0.2718
    120  CB        32.0840   38.4760   16.2280 C.3   140  GLU140      0.0402
    121  CG        31.2210   37.8610   15.1050 C.3   140  GLU140      0.1161
    122  CD        30.5240   36.5380   15.4940 C.2   140  GLU140      0.3649
    123  OE1       31.1100   35.7500   16.2820 O.co2 140  GLU140     -0.2457
    124  OE2       29.3980   36.2790   14.9890 O.co2 140  GLU140     -0.2457
    125  N         31.0610   41.5570   16.8900 N.am  141  ASN141     -0.1974
    126  CA        29.9260   42.4620   16.8200 C.3   141  ASN141      0.1688
    127  C         30.3160   43.9050   16.5180 C.2   141  ASN141      0.2292
    128  O         29.4800   44.8120   16.5720 O.2   141  ASN141     -0.2864
    129  CB        29.1180   42.3840   18.1130 C.3   141  ASN141      0.1181
    130  CG        28.2380   41.1450   18.1700 C.2   141  ASN141      0.2629
    131  OD1       27.6390   40.7610   17.1630 O.2   141  ASN141     -0.2716
    132  ND2       28.1410   40.5240   19.3480 N.am  141  ASN141     -0.0877
    133  N         31.7480   46.0520   13.5320 N.3   143  MET143     -0.1245
    134  CA        32.1290   46.1910   12.1340 C.3   143  MET143      0.1570
    135  C         32.3450   47.6440   11.7030 C.2   143  MET143      0.2261
    136  O         32.3510   48.5520   12.5290 O.2   143  MET143     -0.2867
    137  CB        31.0760   45.5230   11.2480 C.3   143  MET143      0.0387
    138  CG        31.0420   44.0190   11.3900 C.3   143  MET143      0.0595
    139  SD        29.8390   43.2630   10.3110 S.3   143  MET143     -0.1393
    140  CE        30.8740   42.6910    8.9390 C.3   143  MET143      0.0692
    141  N         26.8510   45.9530   15.7970 N.3   157  ILE157     -0.1231
    142  CA        25.7540   45.3970   15.0150 C.3   157  ILE157      0.1692
    143  C         24.7340   44.4510   15.6250 C.2   157  ILE157      0.2592
    144  O         23.6220   44.3430   15.1130 O.2   157  ILE157     -0.2718
    145  CB        26.3120   44.7400   13.7530 C.3   157  ILE157      0.0266
    146  CG1       27.2570   43.6100   14.1470 C.3   157  ILE157      0.0019
    147  CG2       27.0710   45.7770   12.9240 C.3   157  ILE157      0.0020
    148  CD1       27.9100   42.9260   12.9560 C.3   157  ILE157      0.0001
    149  N         25.0720   43.7680   16.7060 N.am  158  ASP158     -0.1960
    150  CA        24.1030   42.8520   17.2810 C.3   158  ASP158      0.1840
    151  C         23.5390   43.3540   18.5990 C.2   158  ASP158      0.2622
    152  O         24.2280   44.0420   19.3490 O.2   158  ASP158     -0.2715
    153  CB        24.7440   41.4830   17.4870 C.3   158  ASP158      0.1450
    154  CG        23.7210   40.3870   17.6870 C.2   158  ASP158      0.3671
    155  OD1       24.1330   39.2290   17.9190 O.co2 158  ASP158     -0.2456
    156  OD2       22.5080   40.6880   17.6010 O.co2 158  ASP158     -0.2456
    157  N         22.2880   43.0060   18.8860 N.am  159  PHE159     -0.1974
    158  CA        21.6640   43.4350   20.1300 C.3   159  PHE159      0.1639
    159  C         20.8290   42.3600   20.8210 C.2   159  PHE159      0.2290
    160  O         19.9780   42.6580   21.6590 O.2   159  PHE159     -0.2864
    161  CB        20.8590   44.7100   19.8730 C.3   159  PHE159      0.0560
    162  CG        21.7140   45.9580   19.8550 C.ar  159  PHE159     -0.0200
    163  CD1       22.0130   46.6320   21.0480 C.ar  159  PHE159     -0.0042
    164  CD2       22.2830   46.4150   18.6670 C.ar  159  PHE159     -0.0042
    165  CE1       22.8700   47.7390   21.0620 C.ar  159  PHE159     -0.0003
    166  CE2       23.1460   47.5230   18.6700 C.ar  159  PHE159     -0.0003
    167  CZ        23.4410   48.1870   19.8740 C.ar  159  PHE159     -0.0000
@<TRIPOS>BOND
     1    90    88    1
     2   102    99    1
     3   101   100    2
     4     8     6    1
     5    88    89    1
     6    88    87    1
     7    99   100    1
     8    99    98    1
     9     6     7    1
    10     6     5    1
    11    87    84    1
    12     1     2    1
    13    94    93    2
    14     2     5    1
    15     2     3    1
    16    98    93   am
    17    93    92    1
    18    35    36    1
    19    86    85    2
    20    84    85    1
    21    84    83    1
    22    85    91   am
    23    36    37    1
    24    36    39    1
    25     3     4    2
    26     3     9   am
    27    31    30    2
    28    83    76   am
    29    91    92    1
    30    92    95    1
    31   103   104    1
    32    30    29    1
    33    37    38    2
    34     9    10    1
    35   104   105    1
    36    69    68    2
    37    76    75    1
    38    76    77    2
    39    96    95    1
    40    95    97    1
    41    10    11    1
    42    29    28    1
    43    29    32    1
    44    75    74    1
    45    75    78    1
    46    79    78    1
    47    79    80    1
    48    34    32    1
    49    68    74   am
    50    68    67    1
    51   140   139    1
    52    12    11    2
    53   105   107   am
    54   105   106    2
    55    82    80   ar
    56    32    33    1
    57    18    17    1
    58    11    13   am
    59    66    67    1
    60    40    41    1
    61   107   108    1
    62    80    81   ar
    63    67    70    1
    64    13    14    1
    65   139   138    1
    66   110   109    2
    67    41    42    1
    68    41    44    1
    69    17    14    1
    70    42    43    2
    71    70    71    1
    72    14    15    1
    73   108   109    1
    74   108   111    1
    75   137   138    1
    76   137   134    1
    77    65    63    1
    78   111   112    1
    79    44    45    1
    80   112   113    1
    81   135   134    1
    82   135   136    2
    83    71    72    1
    84    71    73    1
    85   115   113   ar
    86   134   133    1
    87   113   114   ar
    88    15    16    2
    89    15    19   am
    90    63    62    1
    91    25    26    2
    92    25    24    1
    93    45    46    1
    94   147   145    1
    95   148   146    1
    96    19    20    1
    97    24    27    1
    98    24    23    1
    99   145   146    1
   100   145   142    1
   101    62    59    1
   102    62    64    1
   103    59    60    1
   104    59    58    1
   105    46    47    1
   106    60    61    2
   107    22    21    2
   108    20    21    1
   109   119   118    2
   110   124   122   ar
   111   142   143    1
   112   142   141    1
   113   121   122    1
   114   121   120    1
   115   144   143    2
   116    47    48    1
   117   122   123   ar
   118   143   149   am
   119   118   117    1
   120   118   125   am
   121   117   120    1
   122   117   116    1
   123   127   128    2
   124   127   126    1
   125   149   150    1
   126   126   125    1
   127   126   129    1
   128   131   130    2
   129   150   153    1
   130   150   151    1
   131   153   154    1
   132   156   154   ar
   133   154   155   ar
   134    57    55   ar
   135   129   130    1
   136   130   132   am
   137    56    55   ar
   138    55    54    1
   139   151   157   am
   140   151   152    2
   141   164   166   ar
   142   164   162   ar
   143   166   167   ar
   144   157   158    1
   145    54    53    1
   146   162   161    1
   147   162   163   ar
   148   161   158    1
   149   167   165   ar
   150    52    51    2
   151   158   159    1
   152    51    50    1
   153    53    50    1
   154   159   160    2
   155   163   165   ar
   156    50    49    1
