@<TRIPOS>MOLECULE
tmp/1ww3A00.pdb
 161 154 0 0 0
SMALL
GASTEIGER

@<TRIPOS>ATOM
      1  N         28.8240   23.8180   30.3090 N.3   124  GLY124     -0.1210
      2  CA        29.0790   22.5620   29.6280 C.3   124  GLY124      0.1956
      3  C         29.8510   21.4810   30.3570 C.2   124  GLY124      0.2611
      4  O         29.4380   20.3210   30.3670 O.2   124  GLY124     -0.2717
      5  N         30.9780   21.8410   30.9580 N.am  125  LEU125     -0.1979
      6  CA        31.7860   20.8520   31.6630 C.3   125  LEU125      0.1596
      7  C         31.0330   20.2550   32.8580 C.2   125  LEU125      0.2287
      8  O         31.0580   19.0450   33.0790 O.2   125  LEU125     -0.2864
      9  CB        33.0940   21.4920   32.1290 C.3   125  LEU125      0.0297
     10  CG        34.0730   20.6240   32.9230 C.3   125  LEU125      0.0022
     11  CD1       34.6080   19.5210   32.0470 C.3   125  LEU125      0.0001
     12  CD2       35.2250   21.4850   33.4260 C.3   125  LEU125      0.0001
     13  N         28.0530   18.0630   31.7240 N.3   128  LEU128     -0.1245
     14  CA        28.5250   16.8010   31.1500 C.3   128  LEU128      0.1561
     15  C         28.7120   15.7660   32.2540 C.2   128  LEU128      0.2260
     16  O         28.3490   14.5990   32.1070 O.2   128  LEU128     -0.2867
     17  CB        29.8580   16.9920   30.4140 C.3   128  LEU128      0.0270
     18  CG        30.3140   15.7270   29.6690 C.3   128  LEU128      0.0019
     19  CD1       29.5010   15.5200   28.3870 C.3   128  LEU128      0.0001
     20  CD2       31.7780   15.8770   29.3380 C.3   128  LEU128      0.0001
     21  N         34.0950   30.2640   33.0190 N.3   264  ASP264     -0.1225
     22  CA        33.8930   29.2510   31.9890 C.3   264  ASP264      0.1805
     23  C         35.0170   29.4620   30.9780 C.2   264  ASP264      0.2598
     24  O         35.1170   30.5270   30.3710 O.2   264  ASP264     -0.2718
     25  CB        32.5380   29.4210   31.2900 C.3   264  ASP264      0.1424
     26  CG        32.2040   28.2460   30.3720 C.2   264  ASP264      0.3668
     27  OD1       31.4920   27.3150   30.8160 O.co2 264  ASP264     -0.2456
     28  OD2       32.6650   28.2470   29.2090 O.co2 264  ASP264     -0.2456
     29  N         35.8670   28.4540   30.8140 N.am  265  ASN265     -0.1960
     30  CA        36.9880   28.5410   29.8850 C.3   265  ASN265      0.1819
     31  C         37.9220   29.7030   30.2080 C.2   265  ASN265      0.2621
     32  O         38.2880   30.4860   29.3290 O.2   265  ASN265     -0.2715
     33  CB        36.4780   28.6570   28.4460 C.3   265  ASN265      0.1195
     34  CG        36.2260   27.3030   27.8130 C.2   265  ASN265      0.2630
     35  OD1       37.1350   26.6910   27.2450 O.2   265  ASN265     -0.2716
     36  ND2       35.0000   26.8130   27.9350 N.am  265  ASN265     -0.0877
     37  N         38.2930   29.8160   31.4790 N.am  266  PHE266     -0.1974
     38  CA        39.2120   30.8600   31.9160 C.3   266  PHE266      0.1639
     39  C         39.8780   30.4530   33.2220 C.2   266  PHE266      0.2290
     40  O         39.2030   30.1500   34.2070 O.2   266  PHE266     -0.2864
     41  CB        38.4930   32.1920   32.1180 C.3   266  PHE266      0.0560
     42  CG        39.4310   33.3370   32.3850 C.ar  266  PHE266     -0.0200
     43  CD1       40.2090   33.8600   31.3610 C.ar  266  PHE266     -0.0042
     44  CD2       39.5770   33.8520   33.6670 C.ar  266  PHE266     -0.0042
     45  CE1       41.1270   34.8810   31.6060 C.ar  266  PHE266     -0.0003
     46  CE2       40.4950   34.8760   33.9270 C.ar  266  PHE266     -0.0003
     47  CZ        41.2700   35.3890   32.8940 C.ar  266  PHE266     -0.0000
     48  N         39.1800   17.1600   33.1470 N.3   311  ASP311     -0.1239
     49  CA        40.1070   18.2340   32.8160 C.3   311  ASP311      0.1674
     50  C         41.2400   18.1940   33.8350 C.2   311  ASP311      0.2266
     51  O         41.4160   17.1900   34.5150 O.2   311  ASP311     -0.2867
     52  CB        39.4420   19.6110   32.7960 C.3   311  ASP311      0.1410
     53  CG        40.1410   20.5610   31.8350 C.2   311  ASP311      0.3668
     54  OD1       40.8870   21.4480   32.2970 O.co2 311  ASP311     -0.2456
     55  OD2       39.9690   20.3980   30.6070 O.co2 311  ASP311     -0.2456
     56  N         41.5470   20.1520   36.5280 N.3   313  HIS313     -0.1241
     57  CA        41.1660   20.6200   37.8610 C.3   313  HIS313      0.1621
     58  C         41.5400   19.6580   38.9990 C.2   313  HIS313      0.2264
     59  O         41.9700   20.1000   40.0680 O.2   313  HIS313     -0.2867
     60  CB        39.6740   20.9610   37.8670 C.3   313  HIS313      0.0745
     61  CG        39.2740   21.8590   36.7360 C.ar  313  HIS313      0.0817
     62  ND1       37.9680   22.0080   36.3250 N.ar  313  HIS313     -0.2268
     63  CD2       40.0180   22.6410   35.9180 C.ar  313  HIS313      0.1154
     64  CE1       37.9240   22.8430   35.3010 C.ar  313  HIS313      0.1986
     65  NE2       39.1550   23.2410   35.0340 N.ar  313  HIS313     -0.2212
     66  N         39.2410   19.2830   27.8810 N.3   349  HIS349     -0.1226
     67  CA        38.0110   19.9200   27.4210 C.3   349  HIS349      0.1752
     68  C         38.2040   21.2710   26.7290 C.2   349  HIS349      0.2596
     69  O         37.2380   21.9980   26.5330 O.2   349  HIS349     -0.2718
     70  CB        37.0490   20.1110   28.6020 C.3   349  HIS349      0.0759
     71  CG        36.6100   18.8330   29.2470 C.ar  349  HIS349      0.0818
     72  ND1       35.4510   18.1770   28.8920 N.ar  349  HIS349     -0.2268
     73  CD2       37.1770   18.0910   30.2290 C.ar  349  HIS349      0.1154
     74  CE1       35.3210   17.0870   29.6280 C.ar  349  HIS349      0.1986
     75  NE2       36.3560   17.0120   30.4480 N.ar  349  HIS349     -0.2212
     76  N         39.4340   21.6290   26.3700 N.am  350  THR350     -0.1953
     77  CA        39.6390   22.9130   25.7000 C.3   350  THR350      0.1897
     78  C         41.0600   23.0980   25.1930 C.2   350  THR350      0.2313
     79  O         41.9920   22.4850   25.7110 O.2   350  THR350     -0.2863
     80  CB        39.3200   24.1050   26.6390 C.3   350  THR350      0.1794
     81  OG1       39.3080   25.3230   25.8830 O.3   350  THR350     -0.2208
     82  CG2       40.3680   24.2200   27.7370 C.3   350  THR350      0.0378
     83  N         42.4980   29.2420   29.2160 N.3   355  ALA355     -0.1245
     84  CA        41.7480   28.2920   30.0390 C.3   355  ALA355      0.1562
     85  C         42.6300   27.2010   30.6520 C.2   355  ALA355      0.2260
     86  O         42.2130   26.5040   31.5790 O.2   355  ALA355     -0.2867
     87  CB        40.6370   27.6520   29.2070 C.3   355  ALA355      0.0290
     88  N         37.1260   15.5690   23.3620 N.3   427  VAL427     -0.1245
     89  CA        35.6860   15.3690   23.4830 C.3   427  VAL427      0.1561
     90  C         34.8330   15.4530   22.2180 C.2   427  VAL427      0.2260
     91  O         33.6000   15.4810   22.2870 O.2   427  VAL427     -0.2867
     92  CB        35.1420   16.3240   24.5640 C.3   427  VAL427      0.0252
     93  CG1       35.6680   15.8830   25.9320 C.3   427  VAL427      0.0019
     94  CG2       35.5950   17.7570   24.2800 C.3   427  VAL427      0.0019
     95  N         31.3830   13.7340   23.0810 N.3   456  ASN456     -0.1240
     96  CA        30.4070   14.0070   24.1320 C.3   456  ASN456      0.1653
     97  C         28.9960   13.5490   23.7580 C.2   456  ASN456      0.2266
     98  O         28.7150   13.2000   22.6070 O.2   456  ASN456     -0.2867
     99  CB        30.3790   15.5140   24.4490 C.3   456  ASN456      0.1155
    100  CG        31.5210   15.9530   25.3800 C.2   456  ASN456      0.2627
    101  OD1       31.7290   17.1510   25.5990 O.2   456  ASN456     -0.2716
    102  ND2       32.2460   14.9900   25.9350 N.am  456  ASN456     -0.0877
    103  N         34.6450   33.6950   22.2150 N.3   545  TYR545     -0.1227
    104  CA        34.8000   32.6260   21.2390 C.3   545  TYR545      0.1736
    105  C         33.4600   32.0490   20.7750 C.2   545  TYR545      0.2595
    106  O         33.3810   31.4770   19.6860 O.2   545  TYR545     -0.2718
    107  CB        35.7390   31.5280   21.7900 C.3   545  TYR545      0.0548
    108  CG        35.1070   30.4100   22.5950 C.ar  545  TYR545     -0.0200
    109  CD1       34.5220   29.3140   21.9570 C.ar  545  TYR545     -0.0009
    110  CD2       35.1450   30.4150   23.9930 C.ar  545  TYR545     -0.0009
    111  CE1       33.9960   28.2550   22.6860 C.ar  545  TYR545      0.0417
    112  CE2       34.6200   29.3540   24.7330 C.ar  545  TYR545      0.0417
    113  CZ        34.0480   28.2790   24.0730 C.ar  545  TYR545      0.1957
    114  OH        33.5210   27.2260   24.7870 O.3   545  TYR545     -0.2866
    115  N         32.4180   32.2270   21.5910 N.am  546  LYS546     -0.1980
    116  CA        31.0630   31.7440   21.2850 C.3   546  LYS546      0.1596
    117  C         30.4100   32.6580   20.2450 C.2   546  LYS546      0.2287
    118  O         29.4240   32.2910   19.6080 O.2   546  LYS546     -0.2864
    119  CB        30.1900   31.7450   22.5420 C.3   546  LYS546      0.0298
    120  CG        30.7630   31.0220   23.7480 C.3   546  LYS546      0.0038
    121  CD        30.4080   29.5620   23.7350 C.3   546  LYS546      0.0206
    122  CE        30.5810   28.9500   25.1210 C.3   546  LYS546      0.1093
    123  NZ        30.2920   27.4930   25.0750 N.3   546  LYS546     -0.1314
    124  N         37.4850   26.3690   18.1910 N.3   643  THR643     -0.1203
    125  CA        37.4570   26.8920   19.5570 C.3   643  THR643      0.1994
    126  C         36.5190   26.1830   20.5340 C.2   643  THR643      0.2618
    127  O         36.8130   26.1100   21.7240 O.2   643  THR643     -0.2717
    128  CB        37.1200   28.3870   19.5580 C.3   643  THR643      0.1784
    129  OG1       35.8320   28.5880   18.9710 O.3   643  THR643     -0.2211
    130  CG2       38.1580   29.1610   18.7560 C.3   643  THR643      0.0376
    131  N         35.3910   25.6750   20.0410 N.am  644  GLU644     -0.1965
    132  CA        34.4380   24.9620   20.8950 C.3   644  GLU644      0.1733
    133  C         34.8490   23.4930   20.8260 C.2   644  GLU644      0.2616
    134  O         34.6120   22.8440   19.8130 O.2   644  GLU644     -0.2715
    135  CB        33.0170   25.1410   20.3520 C.3   644  GLU644      0.0429
    136  CG        31.8950   24.6800   21.2860 C.3   644  GLU644      0.1163
    137  CD        31.7420   25.5750   22.5000 C.2   644  GLU644      0.3649
    138  OE1       32.4200   25.3220   23.5220 O.co2 644  GLU644     -0.2457
    139  OE2       30.9500   26.5420   22.4310 O.co2 644  GLU644     -0.2457
    140  N         35.4640   22.9770   21.8940 N.am  645  ALA645     -0.1963
    141  CA        35.9390   21.5930   21.9180 C.3   645  ALA645      0.1728
    142  C         34.8870   20.6070   21.4240 C.2   645  ALA645      0.2617
    143  O         35.1750   19.7290   20.6110 O.2   645  ALA645     -0.2715
    144  CB        36.3980   21.2080   23.3270 C.3   645  ALA645      0.0334
    145  N         33.6630   20.7560   21.9130 N.am  646  SER646     -0.1936
    146  CA        32.5910   19.8710   21.4890 C.3   646  SER646      0.2055
    147  C         31.2700   20.6000   21.4210 C.2   646  SER646      0.2644
    148  O         30.6660   20.7320   20.3510 O.2   646  SER646     -0.2714
    149  CB        32.4500   18.6950   22.4610 C.3   646  SER646      0.2130
    150  OG        31.2670   17.9520   22.1880 O.3   646  SER646     -0.2179
    151  N         30.8510   21.0940   22.5800 N.am  647  GLY647     -0.1939
    152  CA        29.5700   21.7530   22.7100 C.3   647  GLY647      0.2014
    153  C         28.6200   20.6250   23.0850 C.2   647  GLY647      0.2639
    154  O         28.8750   19.4700   22.7290 O.2   647  GLY647     -0.2714
    155  N         27.5720   20.9290   23.8440 N.am  648  THR648     -0.1950
    156  CA        26.5800   19.9210   24.2190 C.3   648  THR648      0.1897
    157  C         25.1830   20.5050   24.0290 C.2   648  THR648      0.2313
    158  O         24.2170   19.7720   23.7860 O.2   648  THR648     -0.2863
    159  CB        26.7470   19.4330   25.6790 C.3   648  THR648      0.1794
    160  OG1       26.8730   20.5560   26.5530 O.3   648  THR648     -0.2208
    161  CG2       27.9650   18.5420   25.8010 C.3   648  THR648      0.0378
@<TRIPOS>BOND
     1   124   125    1
     2   130   128    1
     3   129   128    1
     4   125   128    1
     5   125   126    1
     6   118   117    2
     7   106   105    2
     8   134   133    2
     9   131   126   am
    10   131   132    1
    11   117   116    1
    12   148   147    2
    13   135   132    1
    14   135   136    1
    15   126   127    2
    16   143   142    2
    17   105   104    1
    18   105   115   am
    19   133   132    1
    20   133   140   am
    21   104   107    1
    22   104   103    1
    23   116   115    1
    24   116   119    1
    25   136   137    1
    26   147   146    1
    27   147   151   am
    28   142   145   am
    29   142   141    1
    30   146   145    1
    31   146   149    1
    32   107   108    1
    33   140   141    1
    34   141   144    1
    35   109   108   ar
    36   109   111   ar
    37   150   149    1
    38    90    91    2
    39    90    89    1
    40   139   137   ar
    41   137   138   ar
    42   119   120    1
    43   151   152    1
    44   108   110   ar
    45    98    97    2
    46   111   113   ar
    47   152   153    1
    48   154   153    2
    49    95    96    1
    50   153   155   am
    51    88    89    1
    52    89    92    1
    53   121   120    1
    54   121   122    1
    55    97    96    1
    56   158   157    2
    57   155   156    1
    58   110   112   ar
    59   157   156    1
    60   113   112   ar
    61   113   114    1
    62    96    99    1
    63   156   159    1
    64    94    92    1
    65    99   100    1
    66    92    93    1
    67   123   122    1
    68    78    77    1
    69    78    79    2
    70   100   101    2
    71   100   102   am
    72   159   161    1
    73   159   160    1
    74    77    76    1
    75    77    80    1
    76    81    80    1
    77    76    68   am
    78    69    68    2
    79    80    82    1
    80    68    67    1
    81    35    34    2
    82    67    66    1
    83    67    70    1
    84    34    36   am
    85    34    33    1
    86    19    18    1
    87    33    30    1
    88    70    71    1
    89    72    71   ar
    90    72    74   ar
    91    87    84    1
    92    28    26   ar
    93    83    84    1
    94    71    73   ar
    95    32    31    2
    96    20    18    1
    97    74    75   ar
    98     2     1    1
    99     2     3    1
   100    18    17    1
   101    30    31    1
   102    30    29    1
   103    84    85    1
   104    31    37   am
   105    73    75   ar
   106     3     4    2
   107     3     5   am
   108    24    23    2
   109    26    27   ar
   110    26    25    1
   111    17    14    1
   112    55    53   ar
   113    85    86    2
   114    29    23   am
   115     5     6    1
   116    23    22    1
   117    14    13    1
   118    14    15    1
   119    25    22    1
   120    43    45   ar
   121    43    42   ar
   122    37    38    1
   123    45    47   ar
   124     6     9    1
   125     6     7    1
   126    53    54   ar
   127    53    52    1
   128    38    41    1
   129    38    39    1
   130    22    21    1
   131    11    10    1
   132    16    15    2
   133    41    42    1
   134     9    10    1
   135    42    44   ar
   136    52    49    1
   137    49    48    1
   138    49    50    1
   139     7     8    2
   140    47    46   ar
   141    10    12    1
   142    39    40    2
   143    44    46   ar
   144    50    51    2
   145    65    64   ar
   146    65    63   ar
   147    64    62   ar
   148    63    61   ar
   149    62    61   ar
   150    56    57    1
   151    61    60    1
   152    57    60    1
   153    57    58    1
   154    58    59    2
