@<TRIPOS>MOLECULE
tmp/1ww4B00.pdb
 127 120 0 0 0
SMALL
GASTEIGER

@<TRIPOS>ATOM
      1  N        -12.6260   31.4130  119.0590 N.3    43  SER43      -0.1203
      2  CA       -12.9770   32.1280  120.2710 C.3    43  SER43       0.2005
      3  C        -14.4240   32.5980  120.3220 C.2    43  SER43       0.2461
      4  O        -14.6810   33.7930  120.4530 O.2    43  SER43      -0.2732
      5  CB       -12.0440   33.3300  120.4380 C.3    43  SER43       0.2103
      6  OG       -10.6840   32.9260  120.5360 O.3    43  SER43      -0.2182
      7  N        -15.3940   31.6710  120.2260 N.am   44  PRO44      -0.2717
      8  CA       -15.2660   30.2190  120.0710 C.3    44  PRO44       0.1535
      9  C        -15.3440   29.7630  118.6130 C.2    44  PRO44       0.2598
     10  O        -15.0450   28.6210  118.2930 O.2    44  PRO44      -0.2715
     11  CB       -16.4410   29.6970  120.8790 C.3    44  PRO44       0.0310
     12  CG       -17.5030   30.6920  120.5390 C.3    44  PRO44       0.0237
     13  CD       -16.7800   32.0270  120.5840 C.3    44  PRO44       0.0939
     14  N        -15.7250   30.6780  117.7320 N.am   45  ASN45      -0.1973
     15  CA       -15.8960   30.3780  116.3190 C.3    45  ASN45       0.1688
     16  C        -14.6510   30.5540  115.4660 C.2    45  ASN45       0.2292
     17  O        -14.0570   31.6290  115.4370 O.2    45  ASN45      -0.2864
     18  CB       -17.0130   31.2600  115.7820 C.3    45  ASN45       0.1181
     19  CG       -18.2460   31.2290  116.6660 C.2    45  ASN45       0.2629
     20  OD1      -19.1360   32.0740  116.5520 O.2    45  ASN45      -0.2716
     21  ND2      -18.3090   30.2410  117.5500 N.am   45  ASN45      -0.0877
     22  N        -29.6590   38.8190  112.8330 N.3    58  TYR58      -0.1241
     23  CA       -28.9120   37.6990  112.2900 C.3    58  TYR58       0.1605
     24  C        -29.8890   36.6320  111.7940 C.2    58  TYR58       0.2264
     25  O        -30.2180   35.7030  112.5290 O.2    58  TYR58      -0.2867
     26  CB       -27.9870   37.0960  113.3520 C.3    58  TYR58       0.0534
     27  CG       -26.7150   37.8920  113.5660 C.ar   58  TYR58      -0.0201
     28  CD1      -25.4610   37.3330  113.3030 C.ar   58  TYR58      -0.0009
     29  CD2      -26.7670   39.2160  113.9990 C.ar   58  TYR58      -0.0009
     30  CE1      -24.2980   38.0750  113.4640 C.ar   58  TYR58       0.0417
     31  CE2      -25.6140   39.9610  114.1620 C.ar   58  TYR58       0.0417
     32  CZ       -24.3870   39.3910  113.8950 C.ar   58  TYR58       0.1957
     33  OH       -23.2580   40.1450  114.0680 O.3    58  TYR58      -0.2866
     34  N        -26.9330   32.5030  111.3950 N.3    61  HIS61      -0.1241
     35  CA       -25.5600   32.5520  111.8750 C.3    61  HIS61       0.1621
     36  C        -25.0500   31.1140  111.7240 C.2    61  HIS61       0.2264
     37  O        -25.6770   30.1770  112.2290 O.2    61  HIS61      -0.2867
     38  CB       -25.5630   33.0150  113.3530 C.3    61  HIS61       0.0745
     39  CG       -24.2460   32.8720  114.0600 C.ar   61  HIS61       0.0817
     40  ND1      -23.1410   33.6340  113.7500 N.ar   61  HIS61      -0.2268
     41  CD2      -23.8600   32.0410  115.0610 C.ar   61  HIS61       0.1154
     42  CE1      -22.1290   33.2750  114.5230 C.ar   61  HIS61       0.1986
     43  NE2      -22.5390   32.3090  115.3260 N.ar   61  HIS61      -0.2212
     44  N        -21.6640   28.8820  112.3930 N.3    63  ALA63      -0.1245
     45  CA       -20.3520   28.9130  113.0350 C.3    63  ALA63       0.1562
     46  C        -19.6620   27.5660  113.1170 C.2    63  ALA63       0.2260
     47  O        -20.2240   26.6050  113.6050 O.2    63  ALA63      -0.2867
     48  CB       -20.4750   29.5190  114.4430 C.3    63  ALA63       0.0290
     49  N        -16.7850   25.4160  114.7260 N.3    65  ARG65      -0.1245
     50  CA       -15.9610   25.3370  115.9250 C.3    65  ARG65       0.1563
     51  C        -15.1160   24.0600  115.9250 C.2    65  ARG65       0.2260
     52  O        -15.6050   22.9860  116.2730 O.2    65  ARG65      -0.2867
     53  CB       -16.8660   25.3750  117.1680 C.3    65  ARG65       0.0307
     54  CG       -16.8690   26.7050  117.8890 C.3    65  ARG65       0.0489
     55  CD       -18.2020   27.4230  117.9060 C.3    65  ARG65       0.2205
     56  NE       -19.0770   27.0100  118.9930 N.pl3  65  ARG65      -0.0865
     57  CZ       -20.1370   27.7010  119.4130 C.cat  65  ARG65       0.5346
     58  NH1      -20.4650   28.8540  118.8470 N.pl3  65  ARG65       0.1354
     59  NH2      -20.8860   27.2260  120.4010 N.pl3  65  ARG65       0.1354
     60  N        -22.5720   25.3650  114.4610 N.3    72  VAL72      -0.1245
     61  CA       -23.7630   25.9080  115.0950 C.3    72  VAL72       0.1561
     62  C        -24.5920   26.7780  114.1730 C.2    72  VAL72       0.2260
     63  O        -24.0630   27.5540  113.3860 O.2    72  VAL72      -0.2867
     64  CB       -23.4090   26.7530  116.3510 C.3    72  VAL72       0.0252
     65  CG1      -24.6820   27.2720  117.0120 C.3    72  VAL72       0.0019
     66  CG2      -22.6130   25.9180  117.3380 C.3    72  VAL72       0.0019
     67  N        -27.8600   29.4620  114.3880 N.3    74  ASN74      -0.1240
     68  CA       -28.6980   30.2440  115.2930 C.3    74  ASN74       0.1653
     69  C        -29.1490   31.5380  114.6300 C.2    74  ASN74       0.2266
     70  O        -28.8310   31.8030  113.4710 O.2    74  ASN74      -0.2867
     71  CB       -27.9350   30.5840  116.5800 C.3    74  ASN74       0.1155
     72  CG       -28.8510   30.6990  117.7980 C.2    74  ASN74       0.2627
     73  OD1      -30.0200   31.0660  117.6840 O.2    74  ASN74      -0.2716
     74  ND2      -28.3070   30.3950  118.9750 N.am   74  ASN74      -0.0877
     75  N        -30.8550   35.8230  115.8510 N.3    76  ARG76      -0.1245
     76  CA       -31.0370   36.8020  116.9200 C.3    76  ARG76       0.1563
     77  C        -31.2590   38.1990  116.3880 C.2    76  ARG76       0.2260
     78  O        -30.6100   38.6100  115.4310 O.2    76  ARG76      -0.2867
     79  CB       -29.8280   36.8180  117.8590 C.3    76  ARG76       0.0307
     80  CG       -28.6210   37.5890  117.3680 C.3    76  ARG76       0.0489
     81  CD       -27.5530   37.5370  118.4440 C.3    76  ARG76       0.2205
     82  NE       -26.3510   38.2860  118.1080 N.pl3  76  ARG76      -0.0865
     83  CZ       -26.2840   39.6100  118.0630 C.cat  76  ARG76       0.5346
     84  NH1      -27.3610   40.3390  118.3360 N.pl3  76  ARG76       0.1354
     85  NH2      -25.1410   40.2000  117.7490 N.pl3  76  ARG76       0.1354
     86  N        -28.8370   35.6450  122.0370 N.3    82  TRP82      -0.1241
     87  CA       -28.8100   34.5710  121.0450 C.3    82  TRP82       0.1605
     88  C        -30.0250   33.6810  121.2960 C.2    82  TRP82       0.2264
     89  O        -30.4650   33.5460  122.4350 O.2    82  TRP82      -0.2867
     90  CB       -27.5230   33.7520  121.1750 C.3    82  TRP82       0.0550
     91  CG       -26.4020   34.2430  120.3020 C.ar   82  TRP82       0.0003
     92  CD1      -25.1530   34.6210  120.7030 C.ar   82  TRP82       0.0946
     93  CD2      -26.4240   34.3860  118.8770 C.ar   82  TRP82       0.0152
     94  NE1      -24.3950   34.9890  119.6190 N.ar   82  TRP82      -0.2442
     95  CE2      -25.1500   34.8560  118.4840 C.ar   82  TRP82       0.0810
     96  CE3      -27.3970   34.1620  117.8900 C.ar   82  TRP82       0.0012
     97  CZ2      -24.8230   35.1060  117.1500 C.ar   82  TRP82       0.0191
     98  CZ3      -27.0710   34.4120  116.5560 C.ar   82  TRP82       0.0001
     99  CH2      -25.7950   34.8790  116.2030 C.ar   82  TRP82       0.0015
    100  N        -30.2400   27.4450  119.5930 N.3    85  GLU85      -0.1245
    101  CA       -29.2080   27.0560  118.6550 C.3    85  GLU85       0.1567
    102  C        -29.1210   25.5840  118.3050 C.2    85  GLU85       0.2260
    103  O        -28.8880   24.7310  119.1670 O.2    85  GLU85      -0.2867
    104  CB       -27.8370   27.5620  119.1370 C.3    85  GLU85       0.0388
    105  CG       -27.1020   26.7020  120.1520 C.3    85  GLU85       0.1160
    106  CD       -25.7920   27.3380  120.6020 C.2    85  GLU85       0.3649
    107  OE1      -24.9530   26.6430  121.2040 O.co2  85  GLU85      -0.2457
    108  OE2      -25.5920   28.5450  120.3620 O.co2  85  GLU85      -0.2457
    109  N        -27.3760   22.4300  116.0580 N.3    87  ARG87      -0.1245
    110  CA       -25.9750   22.0990  115.8730 C.3    87  ARG87       0.1563
    111  C        -25.7610   20.7640  115.1700 C.2    87  ARG87       0.2260
    112  O        -26.5430   19.8310  115.3370 O.2    87  ARG87      -0.2867
    113  CB       -25.2510   22.1240  117.2220 C.3    87  ARG87       0.0307
    114  CG       -26.0730   21.6300  118.4080 C.3    87  ARG87       0.0489
    115  CD       -25.7750   22.4760  119.6600 C.3    87  ARG87       0.2205
    116  NE       -24.3460   22.5120  119.9780 N.pl3  87  ARG87      -0.0865
    117  CZ       -23.7790   23.3820  120.8090 C.cat  87  ARG87       0.5346
    118  NH1      -24.5150   24.2990  121.4160 N.pl3  87  ARG87       0.1354
    119  NH2      -22.4700   23.3370  121.0270 N.pl3  87  ARG87       0.1354
    120  N        -16.9310   36.3830  109.5040 N.3   139  ASN139     -0.1240
    121  CA       -16.1170   36.6740  110.6830 C.3   139  ASN139      0.1653
    122  C        -15.2320   35.4730  110.9890 C.2   139  ASN139      0.2266
    123  O        -15.6380   34.3240  110.7950 O.2   139  ASN139     -0.2867
    124  CB       -17.0050   36.9460  111.9020 C.3   139  ASN139      0.1155
    125  CG       -17.8310   38.2270  111.7710 C.2   139  ASN139      0.2627
    126  OD1      -18.6860   38.5140  112.6170 O.2   139  ASN139     -0.2716
    127  ND2      -17.5680   39.0090  110.7250 N.am  139  ASN139     -0.0877
@<TRIPOS>BOND
     1   120   121    1
     2   121   122    1
     3   121   124    1
     4   127   125   am
     5   123   122    2
     6    34    35    1
     7    36    35    1
     8    36    37    2
     9   125   124    1
    10   125   126    2
    11    24    23    1
    12    24    25    2
    13    35    38    1
    14    23    22    1
    15    23    26    1
    16    44    45    1
    17    45    46    1
    18    45    48    1
    19    46    47    2
    20    28    30   ar
    21    28    27   ar
    22    26    27    1
    23    38    39    1
    24    63    62    2
    25    30    32   ar
    26    70    69    2
    27    27    29   ar
    28    40    39   ar
    29    40    42   ar
    30    32    33    1
    31    32    31   ar
    32    29    31   ar
    33    39    41   ar
    34    62    61    1
    35    67    68    1
    36    60    61    1
    37    42    43   ar
    38    69    68    1
    39    49    50    1
    40    41    43   ar
    41    61    64    1
    42   111   112    2
    43   111   110    1
    44    68    71    1
    45    78    77    2
    46    17    16    2
    47    16    15    1
    48    18    15    1
    49    18    19    1
    50    75    76    1
    51   110   109    1
    52   110   113    1
    53    51    50    1
    54    51    52    2
    55    50    53    1
    56    99    98   ar
    57    99    97   ar
    58    15    14    1
    59    64    65    1
    60    64    66    1
    61    77    76    1
    62    20    19    2
    63    98    96   ar
    64    71    72    1
    65    19    21   am
    66    76    79    1
    67    97    95   ar
    68    53    54    1
    69   113   114    1
    70    80    79    1
    71    80    81    1
    72    73    72    2
    73    14     9   am
    74    85    83    1
    75    72    74   am
    76    54    55    1
    77    96    93   ar
    78    55    56    1
    79    83    82    2
    80    83    84    1
    81    82    81    1
    82    10     9    2
    83   102   101    1
    84   102   103    2
    85   114   115    1
    86    95    93   ar
    87    95    94   ar
    88     9     8    1
    89   101   104    1
    90   101   100    1
    91    58    57    1
    92    93    91   ar
    93    56    57    2
    94     1     2    1
    95   104   105    1
    96    57    59    1
    97    94    92   ar
    98   115   116    1
    99   116   117    2
   100     8     7    1
   101     8    11    1
   102   105   106    1
   103     7     3   am
   104     7    13    1
   105     2     3    1
   106     2     5    1
   107    91    92   ar
   108    91    90    1
   109     3     4    2
   110   108   106   ar
   111     5     6    1
   112    12    13    1
   113    12    11    1
   114   106   107   ar
   115   117   119    1
   116   117   118    1
   117    87    90    1
   118    87    88    1
   119    87    86    1
   120    88    89    2
