@<TRIPOS>MOLECULE
tmp/1ww5A00.pdb
 103 99 0 0 0
SMALL
GASTEIGER

@<TRIPOS>ATOM
      1  N        -14.1870    2.3130   64.6440 N.3    43  SER43      -0.1203
      2  CA       -13.8450    3.0060   63.4090 C.3    43  SER43       0.2005
      3  C        -12.4090    3.4980   63.3580 C.2    43  SER43       0.2461
      4  O        -12.1780    4.6960   63.2140 O.2    43  SER43      -0.2732
      5  CB       -14.7740    4.2060   63.2080 C.3    43  SER43       0.2103
      6  OG       -16.1330    3.8120   63.1620 O.3    43  SER43      -0.2182
      7  N        -11.4230    2.5950   63.4710 N.am   44  PRO44      -0.2717
      8  CA       -11.4890    1.1410   63.6440 C.3    44  PRO44       0.1535
      9  C        -11.3810    0.6930   65.1040 C.2    44  PRO44       0.2598
     10  O        -11.7790   -0.4150   65.4520 O.2    44  PRO44      -0.2715
     11  CB       -10.3060    0.6660   62.8300 C.3    44  PRO44       0.0310
     12  CG        -9.2870    1.7010   63.1650 C.3    44  PRO44       0.0237
     13  CD       -10.0550    3.0010   63.0980 C.3    44  PRO44       0.0939
     14  N        -10.8450    1.5690   65.9470 N.am   45  ASN45      -0.1973
     15  CA       -10.6460    1.2870   67.3670 C.3    45  ASN45       0.1688
     16  C        -11.8920    1.4660   68.2450 C.2    45  ASN45       0.2292
     17  O        -12.4450    2.5590   68.3360 O.2    45  ASN45      -0.2864
     18  CB        -9.5230    2.1830   67.8880 C.3    45  ASN45       0.1181
     19  CG        -8.2380    2.0460   67.0760 C.2    45  ASN45       0.2629
     20  OD1       -7.4300    2.9760   67.0010 O.2    45  ASN45      -0.2716
     21  ND2       -8.0360    0.8780   66.4810 N.am   45  ASN45      -0.0877
     22  N          3.0240    9.8080   70.8210 N.3    58  TYR58      -0.1241
     23  CA         2.2900    8.6760   71.3600 C.3    58  TYR58       0.1605
     24  C          3.2790    7.5970   71.7800 C.2    58  TYR58       0.2264
     25  O          3.5670    6.6770   71.0070 O.2    58  TYR58      -0.2867
     26  CB         1.3290    8.1140   70.3110 C.3    58  TYR58       0.0534
     27  CG         0.0630    8.9290   70.1400 C.ar   58  TYR58      -0.0201
     28  CD1       -1.1730    8.4360   70.5700 C.ar   58  TYR58      -0.0009
     29  CD2        0.0980   10.1890   69.5490 C.ar   58  TYR58      -0.0009
     30  CE1       -2.3400    9.1800   70.4110 C.ar   58  TYR58       0.0417
     31  CE2       -1.0580   10.9390   69.3850 C.ar   58  TYR58       0.0417
     32  CZ        -2.2740   10.4310   69.8150 C.ar   58  TYR58       0.1957
     33  OH        -3.4190   11.1700   69.6300 O.3    58  TYR58      -0.2866
     34  N          0.4050    3.3600   72.3830 N.3    61  HIS61      -0.1241
     35  CA        -0.9770    3.3950   71.9020 C.3    61  HIS61       0.1621
     36  C         -1.5220    1.9700   72.0560 C.2    61  HIS61       0.2264
     37  O         -0.9130    1.0170   71.5480 O.2    61  HIS61      -0.2867
     38  CB        -0.9800    3.8200   70.4180 C.3    61  HIS61       0.0745
     39  CG        -2.2950    3.6430   69.7170 C.ar   61  HIS61       0.0817
     40  ND1       -3.3960    4.4290   69.9790 N.ar   61  HIS61      -0.2268
     41  CD2       -2.6730    2.7840   68.7390 C.ar   61  HIS61       0.1154
     42  CE1       -4.3940    4.0650   69.1910 C.ar   61  HIS61       0.1986
     43  NE2       -3.9820    3.0680   68.4290 N.ar   61  HIS61      -0.2212
     44  N         -9.8740   -3.7180   68.9590 N.3    65  ARG65      -0.1245
     45  CA       -10.7490   -3.7840   67.7950 C.3    65  ARG65       0.1563
     46  C        -11.5390   -5.0880   67.7800 C.2    65  ARG65       0.2260
     47  O        -11.0150   -6.1400   67.4210 O.2    65  ARG65      -0.2867
     48  CB        -9.9210   -3.6490   66.5030 C.3    65  ARG65       0.0307
     49  CG        -8.8700   -2.5460   66.5730 C.3    65  ARG65       0.0489
     50  CD        -8.7970   -1.6770   65.3280 C.3    65  ARG65       0.2205
     51  NE        -7.8210   -2.1340   64.3420 N.pl3  65  ARG65      -0.0865
     52  CZ        -6.6660   -1.5240   64.0850 C.cat  65  ARG65       0.5346
     53  NH1       -6.3210   -0.4240   64.7430 N.pl3  65  ARG65       0.1354
     54  NH2       -5.8600   -2.0040   63.1460 N.pl3  65  ARG65       0.1354
     55  N         -3.9120   -3.7530   69.2900 N.3    72  VAL72      -0.1245
     56  CA        -2.7460   -3.1520   68.6640 C.3    72  VAL72       0.1561
     57  C         -1.9460   -2.2610   69.5910 C.2    72  VAL72       0.2260
     58  O         -2.4970   -1.4950   70.3820 O.2    72  VAL72      -0.2867
     59  CB        -3.1400   -2.3140   67.4130 C.3    72  VAL72       0.0252
     60  CG1       -1.9000   -1.6630   66.8040 C.3    72  VAL72       0.0019
     61  CG2       -3.8170   -3.1980   66.3840 C.3    72  VAL72       0.0019
     62  N          1.2320    0.4730   69.3280 N.3    74  ASN74      -0.1240
     63  CA         2.0940    1.2180   68.4280 C.3    74  ASN74       0.1653
     64  C          2.5450    2.5160   69.0660 C.2    74  ASN74       0.2266
     65  O          2.2440    2.7840   70.2320 O.2    74  ASN74      -0.2867
     66  CB         1.3720    1.5140   67.1100 C.3    74  ASN74       0.1155
     67  CG         2.3330    1.6310   65.9370 C.2    74  ASN74       0.2627
     68  OD1        3.5190    1.9000   66.1200 O.2    74  ASN74      -0.2716
     69  ND2        1.8240    1.4350   64.7290 N.am   74  ASN74      -0.0877
     70  N          2.1820    6.4720   61.5790 N.3    82  TRP82      -0.1241
     71  CA         2.2250    5.4370   62.6150 C.3    82  TRP82       0.1605
     72  C          3.4180    4.5060   62.3730 C.2    82  TRP82       0.2264
     73  O          3.6650    4.0950   61.2420 O.2    82  TRP82      -0.2867
     74  CB         0.9290    4.6220   62.6060 C.3    82  TRP82       0.0550
     75  CG        -0.1850    5.2230   63.4200 C.ar   82  TRP82       0.0003
     76  CD1       -1.4110    5.6270   62.9690 C.ar   82  TRP82       0.0946
     77  CD2       -0.1800    5.4590   64.8330 C.ar   82  TRP82       0.0152
     78  NE1       -2.1700    6.0970   64.0150 N.ar   82  TRP82      -0.2442
     79  CE2       -1.4380    6.0070   65.1710 C.ar   82  TRP82       0.0810
     80  CE3        0.7670    5.2600   65.8500 C.ar   82  TRP82       0.0012
     81  CZ2       -1.7760    6.3600   66.4840 C.ar   82  TRP82       0.0191
     82  CZ3        0.4310    5.6110   67.1610 C.ar   82  TRP82       0.0001
     83  CH2       -0.8310    6.1550   67.4620 C.ar   82  TRP82       0.0015
     84  N          3.8040   -1.5230   64.2650 N.3    85  GLU85      -0.1245
     85  CA         2.8180   -1.9730   65.2320 C.3    85  GLU85       0.1567
     86  C          2.8450   -3.4530   65.5630 C.2    85  GLU85       0.2260
     87  O          2.9830   -4.3060   64.6890 O.2    85  GLU85      -0.2867
     88  CB         1.4000   -1.5720   64.7900 C.3    85  GLU85       0.0388
     89  CG         0.9060   -2.1950   63.4940 C.3    85  GLU85       0.1160
     90  CD        -0.5210   -1.7680   63.1500 C.2    85  GLU85       0.3649
     91  OE1       -0.7930   -0.5500   63.1120 O.co2  85  GLU85      -0.2457
     92  OE2       -1.3740   -2.6460   62.9130 O.co2  85  GLU85      -0.2457
     93  N          0.7810   -6.6030   67.3450 N.3    87  ARG87      -0.1245
     94  CA        -0.5980   -6.9840   67.6140 C.3    87  ARG87       0.1563
     95  C         -0.7220   -8.2900   68.3990 C.2    87  ARG87       0.2260
     96  O          0.2050   -9.1050   68.4240 O.2    87  ARG87      -0.2867
     97  CB        -1.3900   -7.0700   66.3040 C.3    87  ARG87       0.0307
     98  CG        -0.5550   -7.3040   65.0530 C.3    87  ARG87       0.0489
     99  CD        -1.0270   -6.4030   63.9050 C.3    87  ARG87       0.2205
    100  NE        -2.4480   -6.5730   63.6020 N.pl3  87  ARG87      -0.0865
    101  CZ        -3.1510   -5.7530   62.8240 C.cat  87  ARG87       0.5346
    102  NH1       -2.5650   -4.7000   62.2690 N.pl3  87  ARG87       0.1354
    103  NH2       -4.4440   -5.9770   62.6040 N.pl3  87  ARG87       0.1354
@<TRIPOS>BOND
     1    73    72    2
     2    70    71    1
     3   102   101    1
     4    72    71    1
     5   103   101    1
     6    74    71    1
     7    74    75    1
     8   101   100    2
     9    11    12    1
    10    11     8    1
    11    92    90   ar
    12    76    75   ar
    13    76    78   ar
    14    13    12    1
    15    13     7    1
    16    91    90   ar
    17    54    52    1
    18    90    89    1
    19     6     5    1
    20     5     2    1
    21     4     3    2
    22     3     2    1
    23     3     7   am
    24     2     1    1
    25    75    77   ar
    26     7     8    1
    27    89    88    1
    28   100    99    1
    29     8     9    1
    30    99    98    1
    31    78    79   ar
    32    52    51    2
    33    52    53    1
    34    84    85    1
    35    51    50    1
    36    87    86    2
    37    69    67   am
    38    88    85    1
    39    77    79   ar
    40    77    80   ar
    41    98    97    1
    42     9    10    2
    43     9    14   am
    44    79    81   ar
    45    85    86    1
    46    50    49    1
    47    80    82   ar
    48    67    68    2
    49    67    66    1
    50    14    15    1
    51    97    94    1
    52    61    59    1
    53    21    19   am
    54    81    83   ar
    55    48    49    1
    56    48    45    1
    57    60    59    1
    58    20    19    2
    59    19    18    1
    60    66    63    1
    61    82    83   ar
    62    93    94    1
    63    15    18    1
    64    15    16    1
    65    59    56    1
    66    47    46    2
    67    94    95    1
    68    46    45    1
    69    45    44    1
    70    16    17    2
    71    95    96    2
    72    63    64    1
    73    63    62    1
    74    43    41   ar
    75    43    42   ar
    76    56    55    1
    77    56    57    1
    78    41    39   ar
    79    64    65    2
    80    42    40   ar
    81    31    29   ar
    82    31    32   ar
    83    29    27   ar
    84    57    58    2
    85    33    32    1
    86    39    40   ar
    87    39    38    1
    88    32    30   ar
    89    27    26    1
    90    27    28   ar
    91    26    23    1
    92    30    28   ar
    93    38    35    1
    94    22    23    1
    95    25    24    2
    96    23    24    1
    97    37    36    2
    98    35    36    1
    99    35    34    1
