@<TRIPOS>MOLECULE
tmp/1wwjB01.pdb
 88 86 0 0 0
SMALL
GASTEIGER

@<TRIPOS>ATOM
      1  N          5.7470   26.8550   47.0540 N.3     6  LYS6       -0.1245
      2  CA         6.8980   26.4770   46.2420 C.3     6  LYS6        0.1561
      3  C          7.7420   27.6990   45.8980 C.2     6  LYS6        0.2260
      4  O          7.2340   28.6750   45.3590 O.2     6  LYS6       -0.2867
      5  CB         6.4530   25.7930   44.9420 C.3     6  LYS6        0.0271
      6  CG         6.1220   24.3220   45.0990 C.3     6  LYS6        0.0035
      7  CD         5.9400   23.6320   43.7490 C.3     6  LYS6        0.0206
      8  CE         5.8890   22.1170   43.9350 C.3     6  LYS6        0.1093
      9  NZ         5.7700   21.3540   42.6670 N.3     6  LYS6       -0.1314
     10  N          2.6780   19.9870   35.1240 N.3    51  GLU51      -0.1231
     11  CA         1.6880   20.6130   35.9940 C.3    51  GLU51       0.1699
     12  C          2.2180   21.7340   36.8710 C.2    51  GLU51       0.2592
     13  O          1.4970   22.2280   37.7350 O.2    51  GLU51      -0.2718
     14  CB         1.0300   19.5600   36.8920 C.3    51  GLU51       0.0402
     15  CG         2.0230   18.6860   37.6520 C.3    51  GLU51       0.1161
     16  CD         2.4620   17.4650   36.8510 C.2    51  GLU51       0.3649
     17  OE1        1.6830   16.4870   36.7870 O.co2  51  GLU51      -0.2457
     18  OE2        3.5730   17.4860   36.2800 O.co2  51  GLU51      -0.2457
     19  N          3.4730   22.1250   36.6660 N.am   52  ASP52      -0.1960
     20  CA         4.0670   23.1870   37.4660 C.3    52  ASP52       0.1840
     21  C          3.9580   24.5380   36.7750 C.2    52  ASP52       0.2621
     22  O          3.7870   24.6270   35.5640 O.2    52  ASP52      -0.2715
     23  CB         5.5570   22.9410   37.7260 C.3    52  ASP52       0.1450
     24  CG         5.8390   21.6130   38.3750 C.2    52  ASP52       0.3671
     25  OD1        5.0260   21.1610   39.2070 O.co2  52  ASP52      -0.2456
     26  OD2        6.9060   21.0360   38.0580 O.co2  52  ASP52      -0.2456
     27  N          4.0860   25.5900   37.5680 N.am   53  LYS53      -0.1977
     28  CA         4.0490   26.9400   37.0480 C.3    53  LYS53       0.1596
     29  C          4.8070   27.8300   38.0200 C.2    53  LYS53       0.2287
     30  O          4.7810   27.6210   39.2340 O.2    53  LYS53      -0.2864
     31  CB         2.6030   27.4210   36.8900 C.3    53  LYS53       0.0298
     32  CG         1.8050   27.5340   38.1800 C.3    53  LYS53       0.0038
     33  CD         0.3770   27.9860   37.8570 C.3    53  LYS53       0.0206
     34  CE        -0.4260   28.2890   39.0910 C.3    53  LYS53       0.1093
     35  NZ        -0.5360   27.1250   39.9960 N.3    53  LYS53      -0.1314
     36  N          4.8840   29.5470   43.8090 N.3    86  ASP86      -0.1225
     37  CA         3.5710   29.0210   43.5100 C.3    86  ASP86       0.1805
     38  C          3.0240   28.5270   44.8290 C.2    86  ASP86       0.2598
     39  O          3.7900   28.1620   45.7190 O.2    86  ASP86      -0.2718
     40  CB         3.6520   27.8800   42.4910 C.3    86  ASP86       0.1424
     41  CG         2.2890   27.4740   41.9680 C.2    86  ASP86       0.3668
     42  OD1        1.3260   28.2370   42.1750 O.co2  86  ASP86      -0.2456
     43  OD2        2.1730   26.3980   41.3460 O.co2  86  ASP86      -0.2456
     44  N          1.7030   28.5470   44.9490 N.am   87  LEU87      -0.1966
     45  CA         1.0170   28.1090   46.1500 C.3    87  LEU87       0.1728
     46  C          0.1480   26.9350   45.7390 C.2    87  LEU87       0.2616
     47  O         -0.8290   27.1060   45.0110 O.2    87  LEU87      -0.2715
     48  CB         0.1430   29.2410   46.6950 C.3    87  LEU87       0.0311
     49  CG        -0.3610   29.1100   48.1370 C.3    87  LEU87       0.0022
     50  CD1        0.8210   29.1470   49.0970 C.3    87  LEU87       0.0001
     51  CD2       -1.3230   30.2480   48.4490 C.3    87  LEU87       0.0001
     52  N          0.5210   25.7430   46.1890 N.am   88  LEU88      -0.1963
     53  CA        -0.2140   24.5250   45.8620 C.3    88  LEU88       0.1728
     54  C         -1.2420   24.2230   46.9430 C.2    88  LEU88       0.2616
     55  O         -1.0050   24.4840   48.1170 O.2    88  LEU88      -0.2715
     56  CB         0.7470   23.3410   45.7570 C.3    88  LEU88       0.0311
     57  CG         2.0940   23.5420   45.0610 C.3    88  LEU88       0.0022
     58  CD1        2.8900   22.2550   45.1660 C.3    88  LEU88       0.0001
     59  CD2        1.8980   23.9390   43.6130 C.3    88  LEU88       0.0001
     60  N         -2.3800   23.6670   46.5420 N.am   89  TYR89      -0.1960
     61  CA        -3.4380   23.3190   47.4810 C.3    89  TYR89       0.1771
     62  C         -3.3340   21.8340   47.8010 C.2    89  TYR89       0.2620
     63  O         -4.2710   21.2290   48.3250 O.2    89  TYR89      -0.2715
     64  CB        -4.8070   23.6260   46.8710 C.3    89  TYR89       0.0574
     65  CG        -5.8970   23.8480   47.8930 C.ar   89  TYR89      -0.0198
     66  CD1       -5.6560   24.6110   49.0350 C.ar   89  TYR89      -0.0009
     67  CD2       -7.1810   23.3400   47.7000 C.ar   89  TYR89      -0.0009
     68  CE1       -6.6620   24.8670   49.9600 C.ar   89  TYR89       0.0417
     69  CE2       -8.2000   23.5940   48.6210 C.ar   89  TYR89       0.0417
     70  CZ        -7.9290   24.3590   49.7490 C.ar   89  TYR89       0.1957
     71  OH        -8.9190   24.6230   50.6670 O.3    89  TYR89      -0.2866
     72  N         -2.1810   21.2600   47.4720 N.am   90  ASP90      -0.1957
     73  CA        -1.8970   19.8500   47.7090 C.3    90  ASP90       0.1840
     74  C         -2.8560   18.9460   46.9420 C.2    90  ASP90       0.2621
     75  O         -4.0060   19.3090   46.6920 O.2    90  ASP90      -0.2715
     76  CB        -1.9710   19.5410   49.2080 C.3    90  ASP90       0.1450
     77  CG        -1.2210   18.2720   49.5820 C.2    90  ASP90       0.3671
     78  OD1       -1.6090   17.1780   49.1150 O.co2  90  ASP90      -0.2456
     79  OD2       -0.2360   18.3730   50.3450 O.co2  90  ASP90      -0.2456
     80  N         -2.3660   17.7670   46.5720 N.am   91  GLU91      -0.1977
     81  CA        -3.1500   16.7890   45.8250 C.3    91  GLU91       0.1602
     82  C         -4.2730   16.1920   46.6720 C.2    91  GLU91       0.2287
     83  O         -4.0490   15.7290   47.7920 O.2    91  GLU91      -0.2864
     84  CB        -2.2260   15.6770   45.3140 C.3    91  GLU91       0.0415
     85  CG        -1.1070   16.1760   44.4030 C.3    91  GLU91       0.1163
     86  CD        -0.0500   15.1190   44.1240 C.2    91  GLU91       0.3649
     87  OE1        0.5890   14.6470   45.0890 O.co2  91  GLU91      -0.2457
     88  OE2        0.1460   14.7610   42.9430 O.co2  91  GLU91      -0.2457
@<TRIPOS>BOND
     1    10    11    1
     2    22    21    2
     3    11    12    1
     4    11    14    1
     5    18    16   ar
     6    19    12   am
     7    19    20    1
     8    21    20    1
     9    21    27   am
    10    17    16   ar
    11    16    15    1
    12    12    13    2
    13    31    28    1
    14    31    32    1
    15    14    15    1
    16    28    27    1
    17    28    29    1
    18    20    23    1
    19    23    24    1
    20    33    32    1
    21    33    34    1
    22    29    30    2
    23    26    24   ar
    24    24    25   ar
    25    34    35    1
    26    43    41   ar
    27    41    42   ar
    28    41    40    1
    29    40    37    1
    30     9     8    1
    31    88    86   ar
    32    37    36    1
    33    37    38    1
    34    59    57    1
    35     7     8    1
    36     7     6    1
    37    86    85    1
    38    86    87   ar
    39    85    84    1
    40    38    44   am
    41    38    39    2
    42     5     6    1
    43     5     2    1
    44    44    45    1
    45    47    46    2
    46    57    58    1
    47    57    56    1
    48    84    81    1
    49     4     3    2
    50    46    45    1
    51    46    52   am
    52    56    53    1
    53    81    80    1
    54    81    82    1
    55    53    52    1
    56    53    54    1
    57     3     2    1
    58    45    48    1
    59     2     1    1
    60    60    54   am
    61    60    61    1
    62    80    74   am
    63    82    83    2
    64    75    74    2
    65    48    49    1
    66    64    61    1
    67    64    65    1
    68    74    73    1
    69    54    55    2
    70    72    73    1
    71    72    62   am
    72    61    62    1
    73    67    65   ar
    74    67    69   ar
    75    73    76    1
    76    62    63    2
    77    65    66   ar
    78    49    51    1
    79    49    50    1
    80    69    70   ar
    81    66    68   ar
    82    78    77   ar
    83    76    77    1
    84    77    79   ar
    85    70    68   ar
    86    70    71    1
