@<TRIPOS>MOLECULE
tmp/1wwjB00.pdb
 79 70 0 0 0
SMALL
GASTEIGER

@<TRIPOS>ATOM
      1  N         14.1970   28.8520   42.9920 N.3     9  VAL9       -0.1245
      2  CA        15.4130   29.6260   43.1190 C.3     9  VAL9        0.1561
      3  C         16.4580   29.2540   42.0940 C.2     9  VAL9        0.2260
      4  O         16.4840   28.1310   41.5790 O.2     9  VAL9       -0.2867
      5  CB        16.0270   29.4630   44.5300 C.3     9  VAL9        0.0252
      6  CG1       14.9750   29.7340   45.5860 C.3     9  VAL9        0.0019
      7  CG2       16.5970   28.0680   44.7000 C.3     9  VAL9        0.0019
      8  N         19.9860   28.6660   42.0910 N.3    11  GLY11      -0.1210
      9  CA        21.1810   28.4330   42.8790 C.3    11  GLY11       0.1956
     10  C         21.0250   28.8000   44.3430 C.2    11  GLY11       0.2611
     11  O         19.9180   29.0470   44.8230 O.2    11  GLY11      -0.2717
     12  N         22.1450   28.8350   45.0550 N.am   12  ASN12      -0.1974
     13  CA        22.1450   29.1560   46.4740 C.3    12  ASN12       0.1688
     14  C         23.3140   30.0450   46.8610 C.2    12  ASN12       0.2292
     15  O         24.2570   30.2110   46.0990 O.2    12  ASN12      -0.2864
     16  CB        22.2050   27.8670   47.2960 C.3    12  ASN12       0.1181
     17  CG        23.3470   26.9570   46.8850 C.2    12  ASN12       0.2629
     18  OD1       24.4980   27.1770   47.2580 O.2    12  ASN12      -0.2716
     19  ND2       23.0310   25.9270   46.1020 N.am   12  ASN12      -0.0877
     20  N         21.1070   33.0710   51.4700 N.3    16  SER16      -0.1202
     21  CA        19.8150   32.5690   51.0240 C.3    16  SER16       0.2020
     22  C         19.5450   31.2150   51.6670 C.2    16  SER16       0.2618
     23  O         18.4100   30.9090   52.0420 O.2    16  SER16      -0.2717
     24  CB        19.7710   32.4420   49.4960 C.3    16  SER16       0.2103
     25  OG        20.3970   31.2510   49.0460 O.3    16  SER16      -0.2182
     26  N         20.5930   30.4090   51.7960 N.am   17  VAL17      -0.1979
     27  CA        20.4760   29.0840   52.3990 C.3    17  VAL17       0.1595
     28  C         20.0520   29.2320   53.8590 C.2    17  VAL17       0.2287
     29  O         19.3110   28.4070   54.4020 O.2    17  VAL17      -0.2864
     30  CB        21.8210   28.3300   52.3400 C.3    17  VAL17       0.0276
     31  CG1       21.6690   26.9400   52.9300 C.3    17  VAL17       0.0022
     32  CG2       22.3090   28.2480   50.9010 C.3    17  VAL17       0.0022
     33  N         16.2850   30.4360   53.9060 N.3    20  LEU20      -0.1245
     34  CA        15.3370   29.3640   53.6250 C.3    20  LEU20       0.1561
     35  C         15.1080   28.5150   54.8620 C.2    20  LEU20       0.2260
     36  O         13.9730   28.1500   55.1700 O.2    20  LEU20      -0.2867
     37  CB        15.8290   28.4670   52.4830 C.3    20  LEU20       0.0270
     38  CG        15.6400   28.9210   51.0300 C.3    20  LEU20       0.0019
     39  CD1       15.9740   27.7430   50.1270 C.3    20  LEU20       0.0001
     40  CD2       14.2040   29.3720   50.7700 C.3    20  LEU20       0.0001
     41  N         11.2920   23.7210   48.0330 N.3    39  VAL39      -0.1245
     42  CA        12.2410   24.5490   47.3130 C.3    39  VAL39       0.1561
     43  C         12.7740   23.8730   46.0660 C.2    39  VAL39       0.2260
     44  O         13.2900   22.7530   46.1170 O.2    39  VAL39      -0.2867
     45  CB        13.4280   24.9380   48.2200 C.3    39  VAL39       0.0252
     46  CG1       14.4270   25.8020   47.4500 C.3    39  VAL39       0.0019
     47  CG2       12.9100   25.6760   49.4410 C.3    39  VAL39       0.0019
     48  N         15.4150   24.2890   43.0210 N.3    41  ASP41      -0.1239
     49  CA        16.5790   24.9760   42.5030 C.3    41  ASP41       0.1674
     50  C         16.5830   24.6340   41.0180 C.2    41  ASP41       0.2266
     51  O         16.9960   23.5430   40.6200 O.2    41  ASP41      -0.2867
     52  CB        17.8470   24.4580   43.1930 C.3    41  ASP41       0.1410
     53  CG        19.1090   25.1510   42.7100 C.2    41  ASP41       0.3668
     54  OD1       20.1650   24.9140   43.3220 O.co2  41  ASP41      -0.2456
     55  OD2       19.0540   25.9190   41.7250 O.co2  41  ASP41      -0.2456
     56  N         19.4770   22.9410   39.2410 N.3    44  LYS44      -0.1245
     57  CA        19.7310   21.5120   39.3720 C.3    44  LYS44       0.1561
     58  C         18.6740   20.7740   38.5650 C.2    44  LYS44       0.2260
     59  O         18.9220   19.6930   38.0300 O.2    44  LYS44      -0.2867
     60  CB        19.6440   21.0780   40.8360 C.3    44  LYS44       0.0271
     61  CG        20.6990   21.6950   41.7280 C.3    44  LYS44       0.0035
     62  CD        20.5340   21.2410   43.1680 C.3    44  LYS44       0.0206
     63  CE        21.5850   21.8760   44.0640 C.3    44  LYS44       0.1093
     64  NZ        21.4780   21.4120   45.4750 N.3    44  LYS44      -0.1314
     65  N         15.2020   36.8310   49.8750 N.3    75  LEU75      -0.1245
     66  CA        15.5860   35.9420   48.7930 C.3    75  LEU75       0.1561
     67  C         15.4760   36.6490   47.4480 C.2    75  LEU75       0.2260
     68  O         16.3170   36.4760   46.5740 O.2    75  LEU75      -0.2867
     69  CB        14.6830   34.7100   48.8090 C.3    75  LEU75       0.0270
     70  CG        14.6870   33.9480   50.1290 C.3    75  LEU75       0.0019
     71  CD1       13.6140   32.8850   50.1100 C.3    75  LEU75       0.0001
     72  CD2       16.0680   33.3480   50.3590 C.3    75  LEU75       0.0001
     73  N         18.1200   35.5250   44.4640 N.3    81  VAL81      -0.1245
     74  CA        18.1580   34.1450   43.9940 C.3    81  VAL81       0.1561
     75  C         16.7440   33.6490   43.6920 C.2    81  VAL81       0.2260
     76  O         16.5640   32.6560   42.9860 O.2    81  VAL81      -0.2867
     77  CB        18.7750   33.1830   45.0390 C.3    81  VAL81       0.0252
     78  CG1       20.2070   33.5780   45.3490 C.3    81  VAL81       0.0019
     79  CG2       17.9160   33.1660   46.3020 C.3    81  VAL81       0.0019
@<TRIPOS>BOND
     1    59    58    2
     2    58    57    1
     3    56    57    1
     4    57    60    1
     5    51    50    2
     6    60    61    1
     7    50    49    1
     8     4     3    2
     9    55    53   ar
    10    61    62    1
    11     8     9    1
    12     3     2    1
    13    49    48    1
    14    49    52    1
    15    53    52    1
    16    53    54   ar
    17     9    10    1
    18    76    75    2
    19     1     2    1
    20     2     5    1
    21    62    63    1
    22    75    74    1
    23    74    73    1
    24    74    77    1
    25    63    64    1
    26    10    11    2
    27    10    12   am
    28     5     7    1
    29     5     6    1
    30    77    78    1
    31    77    79    1
    32    12    13    1
    33    43    44    2
    34    43    42    1
    35    15    14    2
    36    19    17   am
    37    13    14    1
    38    13    16    1
    39    68    67    2
    40    17    18    2
    41    17    16    1
    42    42    41    1
    43    42    45    1
    44    67    66    1
    45    46    45    1
    46    45    47    1
    47    66    69    1
    48    66    65    1
    49    69    70    1
    50    25    24    1
    51    24    21    1
    52    71    70    1
    53    39    38    1
    54    70    72    1
    55    40    38    1
    56    32    30    1
    57    21    20    1
    58    21    22    1
    59    38    37    1
    60    22    26   am
    61    22    23    2
    62    26    27    1
    63    30    27    1
    64    30    31    1
    65    27    28    1
    66    37    34    1
    67    34    33    1
    68    34    35    1
    69    28    29    2
    70    35    36    2
