@<TRIPOS>MOLECULE
tmp/1wwjC01.pdb
 83 79 0 0 0
SMALL
GASTEIGER

@<TRIPOS>ATOM
      1  N         -9.9580   33.1240   33.3830 N.3    11  LYS11      -0.1245
      2  CA       -11.0250   33.4330   32.4570 C.3    11  LYS11       0.1561
      3  C        -11.5830   32.1670   31.8360 C.2    11  LYS11       0.2260
      4  O        -10.8300   31.3830   31.2700 O.2    11  LYS11      -0.2867
      5  CB       -10.4800   34.3640   31.3760 C.3    11  LYS11       0.0271
      6  CG        -9.8590   35.6200   31.9930 C.3    11  LYS11       0.0035
      7  CD        -9.0590   36.4550   31.0050 C.3    11  LYS11       0.0206
      8  CE        -9.9480   37.1870   30.0360 C.3    11  LYS11       0.1093
      9  NZ        -9.1440   38.0680   29.1480 N.3    11  LYS11      -0.1314
     10  N        -14.1990   30.7180   29.0290 N.3    13  TYR13      -0.1241
     11  CA       -15.0410   31.0790   27.8930 C.3    13  TYR13       0.1605
     12  C        -16.0640   29.9650   27.7100 C.2    13  TYR13       0.2264
     13  O        -15.7050   28.8120   27.4410 O.2    13  TYR13      -0.2867
     14  CB       -14.2020   31.2660   26.6380 C.3    13  TYR13       0.0534
     15  CG       -13.2450   32.4330   26.7460 C.ar   13  TYR13      -0.0201
     16  CD1      -12.0510   32.3220   27.4630 C.ar   13  TYR13      -0.0009
     17  CD2      -13.5440   33.6600   26.1420 C.ar   13  TYR13      -0.0009
     18  CE1      -11.1710   33.4050   27.5760 C.ar   13  TYR13       0.0417
     19  CE2      -12.6740   34.7470   26.2500 C.ar   13  TYR13       0.0417
     20  CZ       -11.4950   34.6160   26.9610 C.ar   13  TYR13       0.1957
     21  OH       -10.6220   35.6890   27.0440 O.3    13  TYR13      -0.2866
     22  N        -13.4510   35.2740   35.9740 N.3    43  LYS43      -0.1245
     23  CA       -14.0070   36.1100   34.9200 C.3    43  LYS43       0.1561
     24  C        -14.6440   35.1530   33.9080 C.2    43  LYS43       0.2260
     25  O        -13.9640   34.3040   33.3320 O.2    43  LYS43      -0.2867
     26  CB       -12.8910   36.9260   34.2610 C.3    43  LYS43       0.0271
     27  CG       -13.3420   38.2270   33.6010 C.3    43  LYS43       0.0035
     28  CD       -14.4310   37.9900   32.5820 C.3    43  LYS43       0.0206
     29  CE       -14.8880   39.2980   31.9470 C.3    43  LYS43       0.1093
     30  NZ       -16.1960   39.1560   31.2350 N.3    43  LYS43      -0.1314
     31  N        -16.7320   34.5570   30.3470 N.3    45  ILE45      -0.1245
     32  CA       -17.0790   35.1470   29.0580 C.3    45  ILE45       0.1561
     33  C        -18.0240   34.2090   28.3070 C.2    45  ILE45       0.2260
     34  O        -17.6470   33.0970   27.9390 O.2    45  ILE45      -0.2867
     35  CB       -15.8140   35.3990   28.1930 C.3    45  ILE45       0.0252
     36  CG1      -14.8640   36.3690   28.9060 C.3    45  ILE45       0.0019
     37  CG2      -16.2080   35.9950   26.8470 C.3    45  ILE45       0.0019
     38  CD1      -14.0180   35.7590   30.0180 C.3    45  ILE45       0.0001
     39  N        -21.1540   37.5560   23.8650 N.3    50  ASN50      -0.1226
     40  CA       -20.0300   38.3580   23.4000 C.3    50  ASN50       0.1770
     41  C        -18.9470   37.5180   22.7330 C.2    50  ASN50       0.2439
     42  O        -17.8870   37.2710   23.3130 O.2    50  ASN50      -0.2733
     43  CB       -19.4510   39.1240   24.5860 C.3    50  ASN50       0.1168
     44  CG       -20.4740   40.0260   25.2450 C.2    50  ASN50       0.2627
     45  OD1      -20.4250   40.2660   26.4490 O.2    50  ASN50      -0.2716
     46  ND2      -21.4050   40.5320   24.4550 N.am   50  ASN50      -0.0877
     47  N        -19.1910   37.0900   21.4890 N.am   51  PRO51      -0.2718
     48  CA       -18.2560   36.2680   20.7150 C.3    51  PRO51       0.1535
     49  C        -16.9190   36.9020   20.3270 C.2    51  PRO51       0.2598
     50  O        -15.8930   36.2340   20.3660 O.2    51  PRO51      -0.2715
     51  CB       -19.0880   35.8660   19.4970 C.3    51  PRO51       0.0310
     52  CG       -19.9650   37.0690   19.3000 C.3    51  PRO51       0.0237
     53  CD       -20.4070   37.3800   20.7040 C.3    51  PRO51       0.0939
     54  N        -16.9260   38.1810   19.9650 N.am   52  GLN52      -0.1964
     55  CA       -15.6960   38.8610   19.5570 C.3    52  GLN52       0.1733
     56  C        -14.6760   39.0670   20.6680 C.2    52  GLN52       0.2616
     57  O        -14.9410   39.7660   21.6440 O.2    52  GLN52      -0.2715
     58  CB       -16.0160   40.2230   18.9210 C.3    52  GLN52       0.0408
     59  CG       -16.4780   40.1580   17.4680 C.3    52  GLN52       0.0908
     60  CD       -17.8580   39.5540   17.3040 C.2    52  GLN52       0.2608
     61  OE1      -18.8690   40.1930   17.5950 O.2    52  GLN52      -0.2717
     62  NE2      -17.9070   38.3100   16.8350 N.am   52  GLN52      -0.0878
     63  N        -13.5070   38.4520   20.5100 N.am   53  LEU53      -0.1963
     64  CA       -12.4160   38.5810   21.4700 C.3    53  LEU53       0.1728
     65  C        -11.7950   39.9610   21.3210 C.2    53  LEU53       0.2616
     66  O        -11.5960   40.4240   20.2090 O.2    53  LEU53      -0.2715
     67  CB       -11.3220   37.5490   21.1940 C.3    53  LEU53       0.0311
     68  CG       -11.5550   36.0690   21.4820 C.3    53  LEU53       0.0022
     69  CD1      -10.2990   35.3100   21.1020 C.3    53  LEU53       0.0001
     70  CD2      -11.8860   35.8660   22.9590 C.3    53  LEU53       0.0001
     71  N        -11.4780   40.6040   22.4410 N.am   54  ALA54      -0.1977
     72  CA       -10.8500   41.9180   22.4090 C.3    54  ALA54       0.1597
     73  C         -9.3860   41.7320   22.0280 C.2    54  ALA54       0.2287
     74  O         -8.8000   40.6790   22.2770 O.2    54  ALA54      -0.2864
     75  CB       -10.9620   42.5930   23.7700 C.3    54  ALA54       0.0319
     76  N         -7.2170   39.6910   24.3250 N.3    57  ASP57      -0.1239
     77  CA        -7.7800   38.4640   24.8930 C.3    57  ASP57       0.1674
     78  C         -7.3600   37.2350   24.0850 C.2    57  ASP57       0.2266
     79  O         -7.0390   37.3460   22.9030 O.2    57  ASP57      -0.2867
     80  CB        -9.3100   38.5380   24.8910 C.3    57  ASP57       0.1410
     81  CG        -9.8460   39.6990   25.7020 C.2    57  ASP57       0.3668
     82  OD1      -10.9970   40.1110   25.4410 O.co2  57  ASP57      -0.2456
     83  OD2       -9.1330   40.1930   26.6030 O.co2  57  ASP57      -0.2456
@<TRIPOS>BOND
     1    62    60   am
     2    60    59    1
     3    60    61    2
     4    59    58    1
     5    58    55    1
     6    52    51    1
     7    52    53    1
     8    51    48    1
     9    55    54    1
    10    55    56    1
    11    54    49   am
    12    66    65    2
    13    49    50    2
    14    49    48    1
    15    63    56   am
    16    63    64    1
    17    56    57    2
    18    53    47    1
    19    48    47    1
    20    69    68    1
    21    67    64    1
    22    67    68    1
    23    65    64    1
    24    65    71   am
    25    68    70    1
    26    47    41   am
    27    73    74    2
    28    73    72    1
    29    72    71    1
    30    72    75    1
    31    41    42    2
    32    41    40    1
    33    79    78    2
    34    40    39    1
    35    40    43    1
    36    78    77    1
    37    76    77    1
    38    46    44   am
    39    43    44    1
    40    80    77    1
    41    80    81    1
    42    44    45    2
    43    82    81   ar
    44    81    83   ar
    45    17    19   ar
    46    17    15   ar
    47    19    20   ar
    48    14    15    1
    49    14    11    1
    50    15    16   ar
    51    37    35    1
    52    20    21    1
    53    20    18   ar
    54    13    12    2
    55    16    18   ar
    56    12    11    1
    57    11    10    1
    58    34    33    2
    59    35    36    1
    60    35    32    1
    61    33    32    1
    62    36    38    1
    63    32    31    1
    64     9     8    1
    65     8     7    1
    66     7     6    1
    67    30    29    1
    68     4     3    2
    69     5     6    1
    70     5     2    1
    71     3     2    1
    72    29    28    1
    73     2     1    1
    74    28    27    1
    75    25    24    2
    76    27    26    1
    77    24    23    1
    78    26    23    1
    79    23    22    1
