@<TRIPOS>MOLECULE
tmp/1wwlB01.pdb
 78 72 0 0 0
SMALL
GASTEIGER

@<TRIPOS>ATOM
      1  N         22.0440   43.4440   50.9350 N.3    39  TYR39      -0.1241
      2  CA        23.0810   42.7400   51.6810 C.3    39  TYR39       0.1605
      3  C         23.2430   43.4350   53.0320 C.2    39  TYR39       0.2264
      4  O         23.3180   44.6690   53.0930 O.2    39  TYR39      -0.2867
      5  CB        24.4090   42.7710   50.9090 C.3    39  TYR39       0.0534
      6  CG        25.5360   41.9670   51.5390 C.ar   39  TYR39      -0.0201
      7  CD1       25.4810   40.5740   51.5950 C.ar   39  TYR39      -0.0009
      8  CD2       26.6520   42.6040   52.0960 C.ar   39  TYR39      -0.0009
      9  CE1       26.5110   39.8290   52.1970 C.ar   39  TYR39       0.0417
     10  CE2       27.6910   41.8720   52.7020 C.ar   39  TYR39       0.0417
     11  CZ        27.6170   40.4820   52.7560 C.ar   39  TYR39       0.1957
     12  OH        28.6190   39.7450   53.3900 O.3    39  TYR39      -0.2866
     13  N         25.6090   42.0890   55.3650 N.3    41  GLY41      -0.1210
     14  CA        26.9050   41.6650   55.8700 C.3    41  GLY41       0.1956
     15  C         26.9060   40.7870   57.1030 C.2    41  GLY41       0.2612
     16  O         27.9570   40.5350   57.6930 O.2    41  GLY41      -0.2717
     17  N         25.7350   40.3010   57.4930 N.am   42  GLY42      -0.1956
     18  CA        25.6620   39.4640   58.6720 C.3    42  GLY42       0.1869
     19  C         25.4140   40.3330   59.8790 C.2    42  GLY42       0.2309
     20  O         25.3410   39.8380   60.9930 O.2    42  GLY42      -0.2863
     21  N         22.3260   37.7380   54.1830 N.3    77  ALA77      -0.1231
     22  CA        23.3280   37.9720   55.2260 C.3    77  ALA77       0.1694
     23  C         22.8840   38.9560   56.2820 C.2    77  ALA77       0.2591
     24  O         23.2340   40.1290   56.2430 O.2    77  ALA77      -0.2718
     25  CB        24.6190   38.4430   54.5980 C.3    77  ALA77       0.0304
     26  N         22.1110   38.4870   57.2390 N.am   78  ALA78      -0.1980
     27  CA        21.6390   39.3780   58.2750 C.3    78  ALA78       0.1597
     28  C         20.9190   38.5710   59.3280 C.2    78  ALA78       0.2287
     29  O         20.5080   37.4290   59.0940 O.2    78  ALA78      -0.2864
     30  CB        20.7060   40.4170   57.6830 C.3    78  ALA78       0.0319
     31  N         20.9620   33.1580   53.8910 N.3   104  ASN104     -0.1225
     32  CA        21.9690   33.4060   54.9250 C.3   104  ASN104      0.1785
     33  C         21.3860   34.3570   55.9360 C.2   104  ASN104      0.2597
     34  O         21.9460   35.4210   56.2080 O.2   104  ASN104     -0.2718
     35  CB        23.2520   34.0170   54.3500 C.3   104  ASN104      0.1169
     36  CG        23.8690   33.1610   53.2830 C.2   104  ASN104      0.2627
     37  OD1       23.9350   31.9360   53.4090 O.2   104  ASN104     -0.2716
     38  ND2       24.3360   33.7940   52.2220 N.am  104  ASN104     -0.0877
     39  N         20.2430   33.9780   56.4850 N.am  105  LEU105     -0.1966
     40  CA        19.5950   34.8210   57.4640 C.3   105  LEU105      0.1728
     41  C         19.3910   34.0250   58.7090 C.2   105  LEU105      0.2616
     42  O         19.3370   32.7990   58.6700 O.2   105  LEU105     -0.2715
     43  CB        18.2240   35.2970   56.9770 C.3   105  LEU105      0.0311
     44  CG        18.0770   36.0670   55.6640 C.3   105  LEU105      0.0022
     45  CD1       16.5960   36.4960   55.5130 C.3   105  LEU105      0.0001
     46  CD2       18.9940   37.2740   55.6450 C.3   105  LEU105      0.0001
     47  N         19.2760   34.7400   59.8160 N.am  106  GLU106     -0.1977
     48  CA        19.0190   34.1360   61.1060 C.3   106  GLU106      0.1602
     49  C         17.7810   34.8500   61.6390 C.2   106  GLU106      0.2287
     50  O         17.8990   35.8330   62.3460 O.2   106  GLU106     -0.2864
     51  CB        20.2140   34.3740   62.0100 C.3   106  GLU106      0.0415
     52  CG        20.0170   34.0190   63.4630 C.3   106  GLU106      0.1163
     53  CD        21.3250   34.1240   64.2200 C.2   106  GLU106      0.3649
     54  OE1       21.2970   34.2550   65.4610 O.co2 106  GLU106     -0.2457
     55  OE2       22.3860   34.0630   63.5590 O.co2 106  GLU106     -0.2457
     56  N         19.7000   28.4730   53.3620 N.3   130  ASN130     -0.1240
     57  CA        20.4100   28.6200   54.6290 C.3   130  ASN130      0.1653
     58  C         19.7580   29.6680   55.4980 C.2   130  ASN130      0.2266
     59  O         20.4060   30.5780   55.9900 O.2   130  ASN130     -0.2867
     60  CB        21.8860   28.9490   54.3850 C.3   130  ASN130      0.1155
     61  CG        22.6660   29.1570   55.6650 C.2   130  ASN130      0.2627
     62  OD1       22.4430   28.4930   56.6630 O.2   130  ASN130     -0.2716
     63  ND2       23.6120   30.0820   55.6310 N.am  130  ASN130     -0.0877
     64  N         17.5290   30.2370   58.9270 N.3   132  SER132     -0.1217
     65  CA        17.1200   29.5700   60.1660 C.3   132  SER132      0.1889
     66  C         15.9720   30.3410   60.8050 C.2   132  SER132      0.2288
     67  O         15.8350   31.5390   60.5920 O.2   132  SER132     -0.2866
     68  CB        18.2870   29.4810   61.1470 C.3   132  SER132      0.2089
     69  OG        18.8280   30.7560   61.4320 O.3   132  SER132     -0.2183
     70  N         19.4740   24.1750   52.0070 N.3   158  GLN158     -0.1245
     71  CA        20.2190   24.1560   53.2690 C.3   158  GLN158      0.1566
     72  C         19.3930   24.5840   54.4710 C.2   158  GLN158      0.2260
     73  O         19.8070   25.4670   55.2090 O.2   158  GLN158     -0.2867
     74  CB        21.4500   25.0630   53.1760 C.3   158  GLN158      0.0367
     75  CG        22.6120   24.5370   52.3620 C.3   158  GLN158      0.0905
     76  CD        23.4840   25.6900   51.8570 C.2   158  GLN158      0.2608
     77  OE1       24.7150   25.6910   52.0080 O.2   158  GLN158     -0.2717
     78  NE2       22.8390   26.6860   51.2600 N.am  158  GLN158     -0.0878
@<TRIPOS>BOND
     1     5     6    1
     2     5     2    1
     3     1     2    1
     4    78    76   am
     5     6     7   ar
     6     6     8   ar
     7     7     9   ar
     8     2     3    1
     9    76    77    2
    10    76    75    1
    11    70    71    1
    12     8    10   ar
    13     9    11   ar
    14    38    36   am
    15    75    74    1
    16    10    11   ar
    17    11    12    1
    18     3     4    2
    19    74    71    1
    20    71    72    1
    21    36    37    2
    22    36    35    1
    23    56    57    1
    24    31    32    1
    25    21    22    1
    26    35    32    1
    27    60    57    1
    28    60    61    1
    29    72    73    2
    30    25    22    1
    31    57    58    1
    32    32    33    1
    33    22    23    1
    34    13    14    1
    35    58    59    2
    36    45    44    1
    37    63    61   am
    38    46    44    1
    39    44    43    1
    40    61    62    2
    41    14    15    1
    42    33    34    2
    43    33    39   am
    44    24    23    2
    45    23    26   am
    46    39    40    1
    47    43    40    1
    48    15    17   am
    49    15    16    2
    50    26    27    1
    51    40    41    1
    52    17    18    1
    53    30    27    1
    54    27    28    1
    55    42    41    2
    56    18    19    1
    57    41    47   am
    58    64    65    1
    59    29    28    2
    60    47    48    1
    61    19    20    2
    62    65    66    1
    63    65    68    1
    64    67    66    2
    65    48    49    1
    66    48    51    1
    67    68    69    1
    68    49    50    2
    69    51    52    1
    70    52    53    1
    71    55    53   ar
    72    53    54   ar
