@<TRIPOS>MOLECULE
tmp/1wwlB00.pdb
 93 87 0 0 0
SMALL
GASTEIGER

@<TRIPOS>ATOM
      1  N         17.8780   17.5720   44.2540 N.3   209  ARG209     -0.1245
      2  CA        19.3260   17.4200   43.9850 C.3   209  ARG209      0.1563
      3  C         20.1760   17.5340   45.2660 C.2   209  ARG209      0.2260
      4  O         19.8350   18.3210   46.1520 O.2   209  ARG209     -0.2867
      5  CB        19.8040   18.5010   42.9960 C.3   209  ARG209      0.0307
      6  CG        19.1510   18.4780   41.6060 C.3   209  ARG209      0.0489
      7  CD        19.7370   19.5660   40.6880 C.3   209  ARG209      0.2205
      8  NE        19.4930   20.9070   41.2130 N.pl3 209  ARG209     -0.0865
      9  CZ        18.3030   21.5060   41.1790 C.cat 209  ARG209      0.5346
     10  NH1       17.2550   20.8900   40.6320 N.pl3 209  ARG209      0.1354
     11  NH2       18.1400   22.7020   41.7270 N.pl3 209  ARG209      0.1354
     12  N         13.6640   15.2410   39.7630 N.3   234  ASP234     -0.1239
     13  CA        15.0990   15.4540   39.5370 C.3   234  ASP234      0.1674
     14  C         15.9150   14.9570   40.7230 C.2   234  ASP234      0.2266
     15  O         15.8100   15.4980   41.8290 O.2   234  ASP234     -0.2867
     16  CB        15.3770   16.9480   39.3400 C.3   234  ASP234      0.1410
     17  CG        16.8600   17.2710   38.9730 C.2   234  ASP234      0.3668
     18  OD1       17.1260   18.4790   38.7630 O.co2 234  ASP234     -0.2456
     19  OD2       17.7490   16.3750   38.8960 O.co2 234  ASP234     -0.2456
     20  N         19.3570   14.4470   40.2530 N.3   236  SER236     -0.1202
     21  CA        20.7320   14.6200   39.8620 C.3   236  SER236      0.2020
     22  C         21.5890   15.0810   41.0560 C.2   236  SER236      0.2618
     23  O         21.1000   15.7700   41.9710 O.2   236  SER236     -0.2717
     24  CB        20.8250   15.6100   38.6760 C.3   236  SER236      0.2103
     25  OG        20.1460   16.8290   38.9380 O.3   236  SER236     -0.2182
     26  N         22.8620   14.6740   41.0400 N.am  237  HIS237     -0.1975
     27  CA        23.8240   15.0470   42.0630 C.3   237  HIS237      0.1656
     28  C         23.5820   14.4480   43.4570 C.2   237  HIS237      0.2291
     29  O         23.8210   15.0900   44.4820 O.2   237  HIS237     -0.2864
     30  CB        23.9120   16.5680   42.1780 C.3   237  HIS237      0.0771
     31  CG        24.3850   17.2500   40.9370 C.ar  237  HIS237      0.0820
     32  ND1       25.7090   17.2820   40.5620 N.ar  237  HIS237     -0.2267
     33  CD2       23.7180   17.9910   40.0200 C.ar  237  HIS237      0.1154
     34  CE1       25.8390   18.0180   39.4730 C.ar  237  HIS237      0.1986
     35  NE2       24.6460   18.4630   39.1250 N.ar  237  HIS237     -0.2212
     36  N          9.1060   12.2810   33.5890 N.3   257  SER257     -0.1217
     37  CA        10.4960   12.7530   33.5320 C.3   257  SER257      0.1889
     38  C         11.3500   12.4670   34.7920 C.2   257  SER257      0.2288
     39  O         11.1330   13.0360   35.8670 O.2   257  SER257     -0.2866
     40  CB        10.5040   14.2460   33.2240 C.3   257  SER257      0.2089
     41  OG        11.8230   14.7240   33.1070 O.3   257  SER257     -0.2183
     42  N         15.3000   12.3600   36.1790 N.3   259  ASN259     -0.1240
     43  CA        16.7090   12.7660   35.9930 C.3   259  ASN259      0.1653
     44  C         17.6560   12.0760   36.9820 C.2   259  ASN259      0.2266
     45  O         17.5950   12.3460   38.1770 O.2   259  ASN259     -0.2867
     46  CB        16.8680   14.2550   36.1970 C.3   259  ASN259      0.1155
     47  CG        18.1410   14.7870   35.5940 C.2   259  ASN259      0.2627
     48  OD1       19.1440   14.0460   35.4290 O.2   259  ASN259     -0.2716
     49  ND2       18.1030   16.0790   35.2680 N.am  259  ASN259     -0.0877
     50  N         21.1320   12.0730   36.4530 N.3   261  SER261     -0.1202
     51  CA        22.4430   12.4450   35.9570 C.3   261  SER261      0.2020
     52  C         23.3930   12.8920   37.0430 C.2   261  SER261      0.2618
     53  O         22.9820   13.5850   37.9730 O.2   261  SER261     -0.2717
     54  CB        22.3200   13.5420   34.8780 C.3   261  SER261      0.2103
     55  OG        21.9760   14.8090   35.4320 O.3   261  SER261     -0.2182
     56  N         24.6680   12.5040   36.9090 N.am  262  PHE262     -0.1975
     57  CA        25.7010   12.8840   37.8810 C.3   262  PHE262      0.1639
     58  C         25.3650   12.3010   39.2340 C.2   262  PHE262      0.2290
     59  O         25.3480   13.0300   40.1960 O.2   262  PHE262     -0.2864
     60  CB        25.7760   14.3970   38.0450 C.3   262  PHE262      0.0560
     61  CG        26.1110   15.1270   36.7800 C.ar  262  PHE262     -0.0200
     62  CD1       27.4520   15.3440   36.4200 C.ar  262  PHE262     -0.0042
     63  CD2       25.0910   15.5820   35.9310 C.ar  262  PHE262     -0.0042
     64  CE1       27.7750   16.0000   35.2380 C.ar  262  PHE262     -0.0003
     65  CE2       25.3910   16.2470   34.7260 C.ar  262  PHE262     -0.0003
     66  CZ        26.7320   16.4580   34.3750 C.ar  262  PHE262     -0.0000
     67  N         11.1150   11.2500   29.2580 N.3   278  VAL278     -0.1245
     68  CA        12.5420   11.4730   29.3430 C.3   278  VAL278      0.1561
     69  C         13.1870   10.8130   30.5490 C.2   278  VAL278      0.2260
     70  O         12.6170   10.7220   31.6390 O.2   278  VAL278     -0.2867
     71  CB        12.9270   13.0010   29.2000 C.3   278  VAL278      0.0252
     72  CG1       11.6940   13.8750   29.2220 C.3   278  VAL278      0.0019
     73  CG2       13.9530   13.4080   30.2330 C.3   278  VAL278      0.0019
     74  N         17.0660   10.9580   31.8330 N.3   280  ASP280     -0.1239
     75  CA        18.4190   11.4780   31.7280 C.3   280  ASP280      0.1674
     76  C         19.3720   10.7150   32.6700 C.2   280  ASP280      0.2266
     77  O         19.4090   10.9660   33.8640 O.2   280  ASP280     -0.2867
     78  CB        18.4310   12.9460   32.0830 C.3   280  ASP280      0.1410
     79  CG        19.7590   13.5800   31.8010 C.2   280  ASP280      0.3668
     80  OD1       20.7310   12.8320   31.5460 O.co2 280  ASP280     -0.2456
     81  OD2       19.8280   14.8280   31.8480 O.co2 280  ASP280     -0.2456
     82  N         26.4220   11.1820   32.3970 N.3   283  TYR283     -0.1241
     83  CA        27.5200   11.4590   33.3010 C.3   283  TYR283      0.1605
     84  C         27.5460   10.6290   34.5800 C.2   283  TYR283      0.2264
     85  O         27.6880   11.1410   35.6880 O.2   283  TYR283     -0.2867
     86  CB        27.5540   12.9490   33.6080 C.3   283  TYR283      0.0534
     87  CG        27.9070   13.7550   32.3820 C.ar  283  TYR283     -0.0201
     88  CD1       26.9280   14.4430   31.6650 C.ar  283  TYR283     -0.0009
     89  CD2       29.2380   13.8380   31.9350 C.ar  283  TYR283     -0.0009
     90  CE1       27.2580   15.2100   30.5360 C.ar  283  TYR283      0.0417
     91  CE2       29.5840   14.5930   30.7960 C.ar  283  TYR283      0.0417
     92  CZ        28.5870   15.2800   30.1060 C.ar  283  TYR283      0.1957
     93  OH        28.9050   16.0320   28.9960 O.3   283  TYR283     -0.2866
@<TRIPOS>BOND
     1    93    92    1
     2    71    72    1
     3    71    68    1
     4    71    73    1
     5    67    68    1
     6    68    69    1
     7    92    90   ar
     8    92    91   ar
     9    90    88   ar
    10    69    70    2
    11    91    89   ar
    12    80    79   ar
    13    88    87   ar
    14    75    74    1
    15    75    78    1
    16    75    76    1
    17    79    81   ar
    18    79    78    1
    19    89    87   ar
    20    87    86    1
    21    82    83    1
    22    76    77    2
    23    41    40    1
    24    40    37    1
    25    83    86    1
    26    83    84    1
    27    37    36    1
    28    37    38    1
    29    66    65   ar
    30    66    64   ar
    31    84    85    2
    32    65    63   ar
    33    38    39    2
    34    54    55    1
    35    54    51    1
    36    64    62   ar
    37    49    47   am
    38    48    47    2
    39    47    46    1
    40    63    61   ar
    41    51    50    1
    42    51    52    1
    43    43    42    1
    44    43    46    1
    45    43    44    1
    46    62    61   ar
    47    61    60    1
    48    56    52   am
    49    56    57    1
    50    44    45    2
    51    52    53    2
    52    57    60    1
    53    57    58    1
    54    24    25    1
    55    24    21    1
    56    18    17   ar
    57    19    17   ar
    58    17    16    1
    59    35    34   ar
    60    35    33   ar
    61    58    59    2
    62    16    13    1
    63    34    32   ar
    64    13    12    1
    65    13    14    1
    66    21    20    1
    67    21    22    1
    68    33    31   ar
    69    32    31   ar
    70    10     9    1
    71     7     8    1
    72     7     6    1
    73    14    15    2
    74    31    30    1
    75    26    22   am
    76    26    27    1
    77    22    23    2
    78     9     8    2
    79     9    11    1
    80     6     5    1
    81    27    30    1
    82    27    28    1
    83     5     2    1
    84    28    29    2
    85     2     1    1
    86     2     3    1
    87     3     4    2
