@<TRIPOS>MOLECULE
tmp/1wwzB00.pdb
 227 225 0 0 0
SMALL
GASTEIGER

@<TRIPOS>ATOM
      1  N         40.9320   14.7440   30.2590 N.3    25  GLY25      -0.1210
      2  CA        40.6400   14.4790   28.8640 C.3    25  GLY25       0.1956
      3  C         41.5870   13.5240   28.1700 C.2    25  GLY25       0.2611
      4  O         41.1800   12.7950   27.2690 O.2    25  GLY25      -0.2717
      5  N         42.8500   13.5320   28.5750 N.am   26  TYR26      -0.1976
      6  CA        43.8320   12.6580   27.9560 C.3    26  TYR26       0.1639
      7  C         44.1820   11.4670   28.8350 C.2    26  TYR26       0.2290
      8  O         45.2940   10.9470   28.8060 O.2    26  TYR26      -0.2864
      9  CB        45.0710   13.4620   27.5800 C.3    26  TYR26       0.0560
     10  CG        44.8300   14.3070   26.3460 C.ar   26  TYR26      -0.0198
     11  CD1       44.7570   13.7190   25.0870 C.ar   26  TYR26      -0.0009
     12  CD2       44.6400   15.6850   26.4410 C.ar   26  TYR26      -0.0009
     13  CE1       44.5010   14.4810   23.9440 C.ar   26  TYR26       0.0417
     14  CE2       44.3780   16.4590   25.3010 C.ar   26  TYR26       0.0417
     15  CZ        44.3140   15.8490   24.0600 C.ar   26  TYR26       0.1957
     16  OH        44.0740   16.6030   22.9310 O.3    26  TYR26      -0.2866
     17  N         44.2450   25.4390   15.6240 N.3    86  ILE86      -0.1231
     18  CA        43.7370   25.0190   16.9210 C.3    86  ILE86       0.1692
     19  C         44.8420   24.1150   17.4580 C.2    86  ILE86       0.2592
     20  O         45.1020   23.0530   16.8930 O.2    86  ILE86      -0.2718
     21  CB        42.4230   24.2160   16.7990 C.3    86  ILE86       0.0266
     22  CG1       41.3270   25.1040   16.1980 C.3    86  ILE86       0.0019
     23  CG2       42.0080   23.6930   18.1720 C.3    86  ILE86       0.0020
     24  CD1       40.0190   24.3740   15.8910 C.3    86  ILE86       0.0001
     25  N         45.5080   24.5500   18.5250 N.am   87  HIS87      -0.1962
     26  CA        46.5990   23.7750   19.1150 C.3    87  HIS87       0.1787
     27  C         46.1140   22.7360   20.1020 C.2    87  HIS87       0.2620
     28  O         46.6850   21.6500   20.1970 O.2    87  HIS87      -0.2715
     29  CB        47.5870   24.6810   19.8530 C.3    87  HIS87       0.0785
     30  CG        48.4060   25.5460   18.9520 C.ar   87  HIS87       0.0821
     31  ND1       49.1930   25.0340   17.9430 N.ar   87  HIS87      -0.2267
     32  CD2       48.5510   26.8910   18.8980 C.ar   87  HIS87       0.1154
     33  CE1       49.7840   26.0290   17.3030 C.ar   87  HIS87       0.1986
     34  NE2       49.4110   27.1660   17.8640 N.ar   87  HIS87      -0.2212
     35  N         45.0750   23.0760   20.8500 N.am   88  GLU88      -0.1963
     36  CA        44.5500   22.1630   21.8600 C.3    88  GLU88       0.1733
     37  C         43.0730   22.4340   22.0910 C.2    88  GLU88       0.2616
     38  O         42.5870   23.5450   21.8810 O.2    88  GLU88      -0.2715
     39  CB        45.3410   22.3180   23.1640 C.3    88  GLU88       0.0429
     40  CG        45.0540   21.2160   24.1710 C.3    88  GLU88       0.1163
     41  CD        45.1520   19.8390   23.5340 C.2    88  GLU88       0.3649
     42  OE1       46.2770   19.4370   23.1660 O.co2  88  GLU88      -0.2457
     43  OE2       44.1050   19.1680   23.3820 O.co2  88  GLU88      -0.2457
     44  N         42.3580   21.4150   22.5450 N.am   89  PHE89      -0.1960
     45  CA        40.9240   21.5370   22.7340 C.3    89  PHE89       0.1771
     46  C         40.5180   20.3560   23.6070 C.2    89  PHE89       0.2619
     47  O         40.5650   19.2100   23.1720 O.2    89  PHE89      -0.2715
     48  CB        40.2770   21.4810   21.3410 C.3    89  PHE89       0.0574
     49  CG        38.7760   21.4440   21.3400 C.ar   89  PHE89      -0.0200
     50  CD1       38.0330   22.1130   22.3040 C.ar   89  PHE89      -0.0042
     51  CD2       38.1020   20.7820   20.3130 C.ar   89  PHE89      -0.0042
     52  CE1       36.6340   22.1280   22.2430 C.ar   89  PHE89      -0.0003
     53  CE2       36.7070   20.7900   20.2410 C.ar   89  PHE89      -0.0003
     54  CZ        35.9720   21.4660   21.2080 C.ar   89  PHE89      -0.0000
     55  N         40.1330   20.6340   24.8450 N.am   90  VAL90      -0.1963
     56  CA        39.7770   19.5490   25.7450 C.3    90  VAL90       0.1727
     57  C         38.7850   19.9610   26.8230 C.2    90  VAL90       0.2616
     58  O         38.8090   21.0870   27.3240 O.2    90  VAL90      -0.2715
     59  CB        41.0640   18.9620   26.3920 C.3    90  VAL90       0.0290
     60  CG1       41.8590   20.0710   27.0570 C.3    90  VAL90       0.0023
     61  CG2       40.7190   17.8740   27.3970 C.3    90  VAL90       0.0023
     62  N         37.9020   19.0270   27.1590 N.am   91  VAL91      -0.1977
     63  CA        36.8850   19.2370   28.1770 C.3    91  VAL91       0.1596
     64  C         37.0080   18.1000   29.1870 C.2    91  VAL91       0.2287
     65  O         37.2000   16.9400   28.8110 O.2    91  VAL91      -0.2864
     66  CB        35.4670   19.2240   27.5530 C.3    91  VAL91       0.0276
     67  CG1       34.4070   19.3550   28.6410 C.3    91  VAL91       0.0022
     68  CG2       35.3330   20.3640   26.5430 C.3    91  VAL91       0.0022
     69  N         36.3410   15.1050   31.4110 N.3    93  LYS93      -0.1245
     70  CA        35.4220   13.9990   31.1500 C.3    93  LYS93       0.1561
     71  C         34.0840   14.0980   31.8780 C.2    93  LYS93       0.2260
     72  O         33.0490   13.7230   31.3290 O.2    93  LYS93      -0.2867
     73  CB        36.0930   12.6560   31.4740 C.3    93  LYS93       0.0271
     74  CG        37.0740   12.1820   30.4070 C.3    93  LYS93       0.0035
     75  CD        37.6660   10.8220   30.7490 C.3    93  LYS93       0.0206
     76  CE        38.5810   10.3060   29.6460 C.3    93  LYS93       0.1093
     77  NZ        37.8470    9.9240   28.4060 N.3    93  LYS93      -0.1314
     78  N         31.9660   16.3860   29.7050 N.3    96  GLN96      -0.1231
     79  CA        31.8190   16.1250   28.2760 C.3    96  GLN96       0.1698
     80  C         30.3880   15.7290   27.9220 C.2    96  GLN96       0.2593
     81  O         29.5970   15.3770   28.7980 O.2    96  GLN96      -0.2718
     82  CB        32.7780   15.0160   27.8400 C.3    96  GLN96       0.0381
     83  CG        34.2350   15.4500   27.7370 C.3    96  GLN96       0.0905
     84  CD        35.1750   14.2850   27.4740 C.2    96  GLN96       0.2608
     85  OE1       34.7390   13.1880   27.1210 O.2    96  GLN96      -0.2717
     86  NE2       36.4720   14.5210   27.6370 N.am   96  GLN96      -0.0878
     87  N         30.0610   15.7990   26.6350 N.am   97  GLY97      -0.1942
     88  CA        28.7310   15.4350   26.1800 C.3    97  GLY97       0.2014
     89  C         27.6170   16.3650   26.6230 C.2    97  GLY97       0.2639
     90  O         26.4490   15.9670   26.6510 O.2    97  GLY97      -0.2714
     91  N         27.9670   17.6050   26.9550 N.am   98  LYS98      -0.1963
     92  CA        26.9830   18.5850   27.4040 C.3    98  LYS98       0.1728
     93  C         26.9520   19.8310   26.5290 C.2    98  LYS98       0.2617
     94  O         26.2640   20.8030   26.8480 O.2    98  LYS98      -0.2715
     95  CB        27.2660   18.9880   28.8520 C.3    98  LYS98       0.0311
     96  CG        27.2790   17.8130   29.8150 C.3    98  LYS98       0.0038
     97  CD        27.5530   18.2630   31.2370 C.3    98  LYS98       0.0206
     98  CE        27.5570   17.0790   32.1970 C.3    98  LYS98       0.1093
     99  NZ        26.2380   16.3760   32.2260 N.3    98  LYS98      -0.1314
    100  N         27.7000   19.8080   25.4310 N.am   99  GLY99      -0.1940
    101  CA        27.7170   20.9500   24.5350 C.3    99  GLY99       0.2014
    102  C         28.8100   21.9700   24.8000 C.2    99  GLY99       0.2639
    103  O         28.8830   22.9870   24.1100 O.2    99  GLY99      -0.2714
    104  N         29.6600   21.7110   25.7880 N.am  100  ILE100     -0.1963
    105  CA        30.7400   22.6350   26.1060 C.3   100  ILE100      0.1727
    106  C         31.7250   22.7060   24.9400 C.2   100  ILE100      0.2617
    107  O         32.1340   23.7930   24.5320 O.2   100  ILE100     -0.2715
    108  CB        31.4740   22.2090   27.3950 C.3   100  ILE100      0.0290
    109  CG1       30.4870   22.2300   28.5700 C.3   100  ILE100      0.0022
    110  CG2       32.6480   23.1430   27.6690 C.3   100  ILE100      0.0023
    111  CD1       31.0860   21.8230   29.8940 C.3   100  ILE100      0.0001
    112  N         32.0910   21.5490   24.3960 N.am  101  GLY101     -0.1940
    113  CA        33.0100   21.5320   23.2700 C.3   101  GLY101      0.2014
    114  C         32.4590   22.3580   22.1210 C.2   101  GLY101      0.2638
    115  O         33.1700   23.1660   21.5200 O.2   101  GLY101     -0.2714
    116  N         31.1790   22.1630   21.8090 N.am  102  ARG102     -0.1977
    117  CA        30.5480   22.9170   20.7330 C.3   102  ARG102      0.1597
    118  C         30.6590   24.4160   20.9930 C.2   102  ARG102      0.2287
    119  O         30.9890   25.1810   20.0920 O.2   102  ARG102     -0.2864
    120  CB        29.0730   22.5250   20.6050 C.3   102  ARG102      0.0334
    121  CG        28.3040   23.3230   19.5730 C.3   102  ARG102      0.0492
    122  CD        26.8300   23.0050   19.6970 C.3   102  ARG102      0.2205
    123  NE        26.3540   23.3420   21.0340 N.pl3 102  ARG102     -0.0865
    124  CZ        25.4400   22.6510   21.7040 C.cat 102  ARG102      0.5346
    125  NH1       24.8920   21.5710   21.1630 N.pl3 102  ARG102      0.1354
    126  NH2       25.0800   23.0380   22.9200 N.pl3 102  ARG102      0.1354
    127  N         44.3970   22.0870   11.8370 N.3   121  LEU121     -0.1231
    128  CA        44.5520   21.3480   13.0840 C.3   121  LEU121      0.1693
    129  C         45.0100   19.9290   12.7910 C.2   121  LEU121      0.2592
    130  O         44.8850   19.4420   11.6630 O.2   121  LEU121     -0.2718
    131  CB        43.2360   21.3130   13.8790 C.3   121  LEU121      0.0284
    132  CG        42.0510   20.5230   13.3060 C.3   121  LEU121      0.0019
    133  CD1       42.2300   19.0300   13.5880 C.3   121  LEU121      0.0001
    134  CD2       40.7560   21.0100   13.9590 C.3   121  LEU121      0.0001
    135  N         45.5630   19.2890   13.8120 N.am  122  TRP122     -0.1962
    136  CA        46.0260   17.9130   13.7180 C.3   122  TRP122      0.1771
    137  C         45.3120   17.1660   14.8240 C.2   122  TRP122      0.2619
    138  O         45.1870   17.6680   15.9440 O.2   122  TRP122     -0.2715
    139  CB        47.5410   17.8120   13.9250 C.3   122  TRP122      0.0590
    140  CG        48.3580   18.3640   12.7990 C.ar  122  TRP122      0.0006
    141  CD1       48.7700   19.6540   12.6390 C.ar  122  TRP122      0.0946
    142  CD2       48.8940   17.6280   11.6900 C.ar  122  TRP122      0.0152
    143  NE1       49.5340   19.7690   11.5010 N.ar  122  TRP122     -0.2442
    144  CE2       49.6260   18.5400   10.8990 C.ar  122  TRP122      0.0810
    145  CE3       48.8220   16.2870   11.2880 C.ar  122  TRP122      0.0012
    146  CZ2       50.2940   18.1530    9.7300 C.ar  122  TRP122      0.0191
    147  CZ3       49.4880   15.9000   10.1190 C.ar  122  TRP122      0.0001
    148  CH2       50.2100   16.8330    9.3570 C.ar  122  TRP122      0.0015
    149  N         44.8340   15.9680   14.5080 N.am  123  VAL123     -0.1963
    150  CA        44.1130   15.1650   15.4770 C.3   123  VAL123      0.1727
    151  C         44.5380   13.7060   15.3650 C.2   123  VAL123      0.2616
    152  O         44.8740   13.2390   14.2780 O.2   123  VAL123     -0.2715
    153  CB        42.5860   15.3010   15.2500 C.3   123  VAL123      0.0290
    154  CG1       42.2270   14.9070   13.8210 C.3   123  VAL123      0.0023
    155  CG2       41.8290   14.4610   16.2620 C.3   123  VAL123      0.0023
    156  N         44.5280   12.9990   16.4920 N.am  124  GLY124     -0.1955
    157  CA        44.9200   11.5960   16.5040 C.3   124  GLY124      0.1869
    158  C         44.1130   10.7340   15.5490 C.2   124  GLY124      0.2309
    159  O         42.9010   10.9070   15.4210 O.2   124  GLY124     -0.2863
    160  N         41.1010    9.2030   17.0840 N.3   127  ASN127     -0.1240
    161  CA        40.2330   10.1230   17.8070 C.3   127  ASN127      0.1653
    162  C         38.9720   10.4200   16.9910 C.2   127  ASN127      0.2266
    163  O         38.7180   11.5610   16.6000 O.2   127  ASN127     -0.2867
    164  CB        40.9970   11.4160   18.0950 C.3   127  ASN127      0.1155
    165  CG        40.3300   12.2610   19.1570 C.2   127  ASN127      0.2627
    166  OD1       39.1950   11.9970   19.5570 O.2   127  ASN127     -0.2716
    167  ND2       41.0300   13.2880   19.6170 N.am  127  ASN127     -0.0877
    168  N         35.9010   10.6050   17.8500 N.3   129  GLY129     -0.1210
    169  CA        34.9960   11.5520   18.4780 C.3   129  GLY129      0.1956
    170  C         35.3070   12.9810   18.0660 C.2   129  GLY129      0.2611
    171  O         34.4180   13.7280   17.6650 O.2   129  GLY129     -0.2717
    172  N         36.5740   13.3680   18.1550 N.am  130  ALA130     -0.1979
    173  CA        36.9620   14.7260   17.7850 C.3   130  ALA130      0.1597
    174  C         36.8110   14.9620   16.2820 C.2   130  ALA130      0.2287
    175  O         36.3330   16.0140   15.8590 O.2   130  ALA130     -0.2864
    176  CB        38.3970   14.9960   18.2220 C.3   130  ALA130      0.0319
    177  N         34.7270   13.6220   14.2440 N.3   132  ASN132     -0.1225
    178  CA        33.3120   13.7710   13.9260 C.3   132  ASN132      0.1785
    179  C         32.8570   15.1960   14.2160 C.2   132  ASN132      0.2597
    180  O         32.1600   15.8130   13.4100 O.2   132  ASN132     -0.2718
    181  CB        32.4560   12.8000   14.7440 C.3   132  ASN132      0.1169
    182  CG        32.6360   11.3630   14.3190 C.2   132  ASN132      0.2627
    183  OD1       32.7460   11.0690   13.1280 O.2   132  ASN132     -0.2716
    184  ND2       32.6460   10.4520   15.2860 N.am  132  ASN132     -0.0877
    185  N         33.2540   15.7120   15.3730 N.am  133  LEU133     -0.1966
    186  CA        32.8830   17.0690   15.7560 C.3   133  LEU133      0.1728
    187  C         33.4690   18.0890   14.7800 C.2   133  LEU133      0.2616
    188  O         32.7720   18.9970   14.3250 O.2   133  LEU133     -0.2715
    189  CB        33.3630   17.3680   17.1790 C.3   133  LEU133      0.0311
    190  CG        33.0620   18.7780   17.6910 C.3   133  LEU133      0.0022
    191  CD1       31.5660   19.0310   17.6280 C.3   133  LEU133      0.0001
    192  CD2       33.5680   18.9300   19.1160 C.3   133  LEU133      0.0001
    193  N         34.7480   17.9430   14.4480 N.am  134  TYR134     -0.1974
    194  CA        35.3630   18.8830   13.5170 C.3   134  TYR134      0.1639
    195  C         34.6830   18.8350   12.1550 C.2   134  TYR134      0.2290
    196  O         34.4740   19.8680   11.5250 O.2   134  TYR134     -0.2864
    197  CB        36.8540   18.5890   13.3420 C.3   134  TYR134      0.0560
    198  CG        37.6750   18.7890   14.5890 C.ar  134  TYR134     -0.0198
    199  CD1       37.4970   19.9170   15.3980 C.ar  134  TYR134     -0.0009
    200  CD2       38.6690   17.8790   14.9390 C.ar  134  TYR134     -0.0009
    201  CE1       38.2960   20.1260   16.5180 C.ar  134  TYR134      0.0417
    202  CE2       39.4670   18.0810   16.0520 C.ar  134  TYR134      0.0417
    203  CZ        39.2790   19.2020   16.8360 C.ar  134  TYR134      0.1957
    204  OH        40.0870   19.3980   17.9330 O.3   134  TYR134     -0.2866
    205  N         31.6370   18.1750   11.5490 N.3   136  LYS136     -0.1245
    206  CA        30.3440   18.8490   11.6440 C.3   136  LYS136      0.1561
    207  C         30.5410   20.3560   11.5230 C.2   136  LYS136      0.2260
    208  O         29.6610   21.0630   11.0350 O.2   136  LYS136     -0.2867
    209  CB        29.6500   18.5240   12.9680 C.3   136  LYS136      0.0271
    210  CG        29.0420   17.1410   13.0250 C.3   136  LYS136      0.0035
    211  CD        28.2580   16.9550   14.3130 C.3   136  LYS136      0.0206
    212  CE        27.6120   15.5820   14.3800 C.3   136  LYS136      0.1093
    213  NZ        26.8400   15.4190   15.6360 N.3   136  LYS136     -0.1314
    214  N         49.0830   11.1650   13.2300 N.3   148  TRP148     -0.1241
    215  CA        48.2960   12.3940   13.2460 C.3   148  TRP148      0.1605
    216  C         47.6750   12.7290   11.8970 C.2   148  TRP148      0.2264
    217  O         48.3260   12.6390   10.8570 O.2   148  TRP148     -0.2867
    218  CB        49.1580   13.5730   13.7020 C.3   148  TRP148      0.0550
    219  CG        49.7650   13.3850   15.0480 C.ar  148  TRP148      0.0003
    220  CD1       50.9950   12.8610   15.3310 C.ar  148  TRP148      0.0946
    221  CD2       49.1690   13.7160   16.3060 C.ar  148  TRP148      0.0152
    222  NE1       51.2000   12.8440   16.6910 N.ar  148  TRP148     -0.2442
    223  CE2       50.0920   13.3570   17.3130 C.ar  148  TRP148      0.0810
    224  CE3       47.9360   14.2670   16.6810 C.ar  148  TRP148      0.0012
    225  CZ2       49.8290   13.5490   18.6730 C.ar  148  TRP148      0.0191
    226  CZ3       47.6740   14.4570   18.0370 C.ar  148  TRP148      0.0001
    227  CH2       48.6150   14.0920   19.0140 C.ar  148  TRP148      0.0015
@<TRIPOS>BOND
     1   148   146   ar
     2   148   147   ar
     3   146   144   ar
     4   147   145   ar
     5   217   216    2
     6   144   143   ar
     7   144   142   ar
     8   208   207    2
     9   145   142   ar
    10   143   141   ar
    11   207   206    1
    12   196   195    2
    13   205   206    1
    14   206   209    1
    15   130   129    2
    16   142   140   ar
    17   127   128    1
    18   216   215    1
    19   195   194    1
    20   141   140   ar
    21   129   128    1
    22   129   135   am
    23   140   139    1
    24   209   210    1
    25   210   211    1
    26   128   131    1
    27   183   182    2
    28   214   215    1
    29   215   218    1
    30   132   133    1
    31   132   131    1
    32   132   134    1
    33   197   194    1
    34   197   198    1
    35   180   179    2
    36   194   193    1
    37   218   219    1
    38   136   135    1
    39   136   139    1
    40   136   137    1
    41   154   153    1
    42   178   179    1
    43   178   177    1
    44   178   181    1
    45   179   185   am
    46   152   151    2
    47   211   212    1
    48   182   181    1
    49   182   184   am
    50   188   187    2
    51   212   213    1
    52   193   187   am
    53   149   137   am
    54   149   150    1
    55   198   200   ar
    56   198   199   ar
    57   187   186    1
    58   137   138    2
    59   200   202   ar
    60   219   220   ar
    61   219   221   ar
    62   153   150    1
    63   153   155    1
    64   220   222   ar
    65   151   150    1
    66   151   156   am
    67   185   186    1
    68   199   201   ar
    69   159   158    2
    70   158   157    1
    71    17    18    1
    72   186   189    1
    73   175   174    2
    74    24    22    1
    75   202   203   ar
    76    22    21    1
    77   174   173    1
    78   221   224   ar
    79   221   223   ar
    80   156   157    1
    81   201   203   ar
    82   163   162    2
    83   224   226   ar
    84   222   223   ar
    85    21    18    1
    86    21    23    1
    87   203   204    1
    88    20    19    2
    89    18    19    1
    90   162   161    1
    91   160   161    1
    92   189   190    1
    93    33    34   ar
    94    33    31   ar
    95   223   225   ar
    96    19    25   am
    97   191   190    1
    98   171   170    2
    99   190   192    1
   100   173   172    1
   101   173   176    1
   102   161   164    1
   103   168   169    1
   104    34    32   ar
   105    31    30   ar
   106   226   227   ar
   107   170   172   am
   108   170   169    1
   109   164   165    1
   110    25    26    1
   111   225   227   ar
   112    32    30   ar
   113    30    29    1
   114    26    29    1
   115    26    27    1
   116   165   166    2
   117   165   167   am
   118   121   122    1
   119   121   120    1
   120   122   123    1
   121   119   118    2
   122    27    28    2
   123    27    35   am
   124    53    51   ar
   125    53    54   ar
   126    51    49   ar
   127   120   117    1
   128   117   118    1
   129   117   116    1
   130    35    36    1
   131   123   124    2
   132   125   124    1
   133    54    52   ar
   134    49    48    1
   135    49    50   ar
   136    48    45    1
   137   115   114    2
   138   124   126    1
   139   116   114   am
   140    36    37    1
   141    36    39    1
   142    38    37    2
   143    37    44   am
   144   114   113    1
   145    52    50   ar
   146    44    45    1
   147    45    46    1
   148    16    15    1
   149    39    40    1
   150    42    41   ar
   151    47    46    2
   152   113   112    1
   153    43    41   ar
   154    41    40    1
   155    46    55   am
   156    13    15   ar
   157    13    11   ar
   158    15    14   ar
   159   103   102    2
   160   112   106   am
   161   107   106    2
   162   101   102    1
   163   101   100    1
   164   102   104   am
   165    55    56    1
   166   106   105    1
   167    11    10   ar
   168    14    12   ar
   169   100    93   am
   170    56    59    1
   171    56    57    1
   172   104   105    1
   173   105   108    1
   174    88    89    1
   175    88    87    1
   176    10    12   ar
   177    10     9    1
   178    59    60    1
   179    59    61    1
   180    93    94    2
   181    93    92    1
   182    68    66    1
   183    89    90    2
   184    89    91   am
   185    87    80   am
   186    57    62   am
   187    57    58    2
   188    91    92    1
   189    85    84    2
   190    62    63    1
   191     4     3    2
   192   108   110    1
   193   108   109    1
   194    92    95    1
   195    84    86   am
   196    84    83    1
   197    66    63    1
   198    66    67    1
   199     9     6    1
   200    83    82    1
   201    82    79    1
   202    80    79    1
   203    80    81    2
   204     6     5    1
   205     6     7    1
   206     3     5   am
   207     3     2    1
   208    63    64    1
   209    79    78    1
   210    77    76    1
   211   109   111    1
   212     8     7    2
   213    65    64    2
   214    95    96    1
   215     2     1    1
   216    76    75    1
   217    96    97    1
   218    74    75    1
   219    74    73    1
   220    70    69    1
   221    70    73    1
   222    70    71    1
   223    97    98    1
   224    72    71    2
   225    98    99    1
