@<TRIPOS>MOLECULE
tmp/1wxeA01.pdb
 91 88 0 0 0
SMALL
GASTEIGER

@<TRIPOS>ATOM
      1  N         64.4740   35.0230   -7.3530 N.3    32  TYR32      -0.1241
      2  CA        63.2490   35.6220   -7.8610 C.3    32  TYR32       0.1605
      3  C         63.5510   36.6040   -8.9880 C.2    32  TYR32       0.2264
      4  O         62.8860   36.5970  -10.0310 O.2    32  TYR32      -0.2867
      5  CB        62.5010   36.3430   -6.7390 C.3    32  TYR32       0.0534
      6  CG        61.0260   36.4930   -7.0320 C.ar   32  TYR32      -0.0201
      7  CD1       60.1760   35.3930   -6.9680 C.ar   32  TYR32      -0.0009
      8  CD2       60.4940   37.7130   -7.4400 C.ar   32  TYR32      -0.0009
      9  CE1       58.8360   35.5010   -7.3060 C.ar   32  TYR32       0.0417
     10  CE2       59.1510   37.8300   -7.7840 C.ar   32  TYR32       0.0417
     11  CZ        58.3320   36.7180   -7.7170 C.ar   32  TYR32       0.1957
     12  OH        57.0100   36.8120   -8.0830 O.3    32  TYR32      -0.2866
     13  N         62.2990   36.4890  -13.0140 N.3    36  TYR36      -0.1241
     14  CA        61.4790   37.5690  -13.5690 C.3    36  TYR36       0.1605
     15  C         62.4380   38.7110  -13.8860 C.2    36  TYR36       0.2264
     16  O         62.4800   39.7230  -13.1810 O.2    36  TYR36      -0.2867
     17  CB        60.4280   38.0240  -12.5440 C.3    36  TYR36       0.0534
     18  CG        59.3640   36.9890  -12.2630 C.ar   36  TYR36      -0.0201
     19  CD1       58.2870   36.8050  -13.1390 C.ar   36  TYR36      -0.0009
     20  CD2       59.4510   36.1590  -11.1470 C.ar   36  TYR36      -0.0009
     21  CE1       57.3300   35.8190  -12.9110 C.ar   36  TYR36       0.0417
     22  CE2       58.5000   35.1700  -10.9120 C.ar   36  TYR36       0.0417
     23  CZ        57.4460   35.0060  -11.7970 C.ar   36  TYR36       0.1957
     24  OH        56.5250   34.0110  -11.5710 O.3    36  TYR36      -0.2866
     25  N         62.3640   41.1890  -15.7490 N.3    38  PHE38      -0.1227
     26  CA        61.8510   42.5270  -16.0310 C.3    38  PHE38       0.1736
     27  C         61.8740   43.3730  -14.7610 C.2    38  PHE38       0.2595
     28  O         61.7060   44.5900  -14.8180 O.2    38  PHE38      -0.2718
     29  CB        60.4290   42.4960  -16.6260 C.3    38  PHE38       0.0547
     30  CG        59.4370   41.6960  -15.8280 C.ar   38  PHE38      -0.0202
     31  CD1       59.2330   40.3440  -16.0990 C.ar   38  PHE38      -0.0042
     32  CD2       58.6950   42.2960  -14.8160 C.ar   38  PHE38      -0.0042
     33  CE1       58.3010   39.6010  -15.3750 C.ar   38  PHE38      -0.0003
     34  CE2       57.7590   41.5620  -14.0830 C.ar   38  PHE38      -0.0003
     35  CZ        57.5620   40.2110  -14.3640 C.ar   38  PHE38      -0.0000
     36  N         62.0860   42.7240  -13.6180 N.am   39  ILE39      -0.1980
     37  CA        62.1620   43.4320  -12.3450 C.3    39  ILE39       0.1595
     38  C         63.5680   44.0080  -12.2410 C.2    39  ILE39       0.2287
     39  O         64.5520   43.2700  -12.2580 O.2    39  ILE39      -0.2864
     40  CB        61.9240   42.4900  -11.1400 C.3    39  ILE39       0.0276
     41  CG1       60.5440   41.8360  -11.2440 C.3    39  ILE39       0.0022
     42  CG2       62.0390   43.2800   -9.8290 C.3    39  ILE39       0.0022
     43  CD1       59.3960   42.8230  -11.3640 C.3    39  ILE39       0.0001
     44  N         54.1500   51.3840   -3.8370 N.3   146  TYR146     -0.1241
     45  CA        53.6890   50.7860   -5.0850 C.3   146  TYR146      0.1605
     46  C         53.7810   51.7480   -6.2670 C.2   146  TYR146      0.2264
     47  O         53.9930   51.3160   -7.3970 O.2   146  TYR146     -0.2867
     48  CB        52.2710   50.2280   -4.9320 C.3   146  TYR146      0.0534
     49  CG        52.3180   48.8060   -4.4350 C.ar  146  TYR146     -0.0201
     50  CD1       52.4660   47.7450   -5.3260 C.ar  146  TYR146     -0.0009
     51  CD2       52.3270   48.5260   -3.0690 C.ar  146  TYR146     -0.0009
     52  CE1       52.6310   46.4420   -4.8710 C.ar  146  TYR146      0.0417
     53  CE2       52.4930   47.2230   -2.6030 C.ar  146  TYR146      0.0417
     54  CZ        52.6460   46.1880   -3.5170 C.ar  146  TYR146      0.1957
     55  OH        52.8230   44.9030   -3.0710 O.3   146  TYR146     -0.2866
     56  N         57.4100   51.5850   -7.2210 N.3   149  ALA149     -0.1231
     57  CA        57.6940   50.3150   -7.8900 C.3   149  ALA149      0.1694
     58  C         57.1320   50.3260   -9.3040 C.2   149  ALA149      0.2592
     59  O         57.7330   49.7680  -10.2240 O.2   149  ALA149     -0.2718
     60  CB        57.0950   49.1400   -7.1010 C.3   149  ALA149      0.0304
     61  N         55.9730   50.9610   -9.4710 N.am  150  GLY150     -0.1957
     62  CA        55.3560   51.0240  -10.7820 C.3   150  GLY150      0.1869
     63  C         56.1720   51.8120  -11.7870 C.2   150  GLY150      0.2309
     64  O         56.1610   51.5050  -12.9810 O.2   150  GLY150     -0.2863
     65  N         59.8430   47.7670  -10.3680 N.3   154  GLY154     -0.1210
     66  CA        60.2420   47.0190   -9.1920 C.3   154  GLY154      0.1956
     67  C         59.1470   46.2770   -8.4560 C.2   154  GLY154      0.2611
     68  O         57.9980   46.2280   -8.8900 O.2   154  GLY154     -0.2717
     69  N         59.5300   45.6560   -7.3480 N.am  155  VAL155     -0.1979
     70  CA        58.5840   44.9430   -6.4980 C.3   155  VAL155      0.1595
     71  C         58.7860   45.4860   -5.0910 C.2   155  VAL155      0.2287
     72  O         59.8770   45.9660   -4.7450 O.2   155  VAL155     -0.2864
     73  CB        58.8110   43.4110   -6.5060 C.3   155  VAL155      0.0276
     74  CG1       58.3430   42.8320   -7.8290 C.3   155  VAL155      0.0022
     75  CG2       60.2770   43.0940   -6.2700 C.3   155  VAL155      0.0022
     76  N         54.8940   42.5720   -1.9500 N.3   179  ASP179     -0.1225
     77  CA        55.0430   41.5490   -2.9820 C.3   179  ASP179      0.1805
     78  C         55.8410   40.3350   -2.5410 C.2   179  ASP179      0.2597
     79  O         55.4720   39.1940   -2.8370 O.2   179  ASP179     -0.2718
     80  CB        55.7230   42.1200   -4.2330 C.3   179  ASP179      0.1424
     81  CG        54.9070   43.2050   -4.9100 C.2   179  ASP179      0.3668
     82  OD1       53.6640   43.0980   -4.9250 O.co2 179  ASP179     -0.2456
     83  OD2       55.5220   44.1570   -5.4400 O.co2 179  ASP179     -0.2456
     84  N         56.9410   40.5820   -1.8420 N.am  180  ILE180     -0.1980
     85  CA        57.8140   39.4970   -1.4060 C.3   180  ILE180      0.1595
     86  C         58.3410   39.7670    0.0070 C.2   180  ILE180      0.2287
     87  O         58.8060   40.8710    0.3120 O.2   180  ILE180     -0.2864
     88  CB        58.9600   39.3290   -2.4410 C.3   180  ILE180      0.0276
     89  CG1       59.9450   38.2480   -1.9960 C.3   180  ILE180      0.0022
     90  CG2       59.6600   40.6710   -2.6680 C.3   180  ILE180      0.0022
     91  CD1       60.9950   37.9420   -3.0580 C.3   180  ILE180      0.0001
@<TRIPOS>BOND
     1    29    26    1
     2    29    30    1
     3    31    30   ar
     4    31    33   ar
     5    26    25    1
     6    26    27    1
     7    30    32   ar
     8    33    35   ar
     9    28    27    2
    10    32    34   ar
    11    27    36   am
    12    35    34   ar
    13    15    14    1
    14    15    16    2
    15    36    37    1
    16    14    13    1
    17    14    17    1
    18    19    21   ar
    19    19    18   ar
    20    64    63    2
    21    21    23   ar
    22    17    18    1
    23    37    38    1
    24    37    40    1
    25    18    20   ar
    26    39    38    2
    27    23    24    1
    28    23    22   ar
    29    63    62    1
    30    43    41    1
    31    41    40    1
    32    20    22   ar
    33    40    42    1
    34    62    61    1
    35    65    66    1
    36    59    58    2
    37     4     3    2
    38    61    58   am
    39    58    57    1
    40    66    67    1
    41     3     2    1
    42    68    67    2
    43    67    69   am
    44    12    11    1
    45    57    56    1
    46    57    60    1
    47     2     1    1
    48     2     5    1
    49    74    73    1
    50    10    11   ar
    51    10     8   ar
    52    11     9   ar
    53     8     6   ar
    54    47    46    2
    55    69    70    1
    56     9     7   ar
    57     6     7   ar
    58     6     5    1
    59    73    70    1
    60    73    75    1
    61    70    71    1
    62    46    45    1
    63    83    81   ar
    64    50    52   ar
    65    50    49   ar
    66    71    72    2
    67    45    48    1
    68    45    44    1
    69    48    49    1
    70    82    81   ar
    71    81    80    1
    72    52    54   ar
    73    49    51   ar
    74    80    77    1
    75    54    55    1
    76    54    53   ar
    77    51    53   ar
    78    91    89    1
    79    77    78    1
    80    77    76    1
    81    79    78    2
    82    90    88    1
    83    78    84   am
    84    88    89    1
    85    88    85    1
    86    84    85    1
    87    85    86    1
    88    86    87    2
