@<TRIPOS>MOLECULE
tmp/1wxgA00.pdb
 91 88 0 0 0
SMALL
GASTEIGER

@<TRIPOS>ATOM
      1  N         18.1980   34.9180   -7.3980 N.3    32  TYR32      -0.1241
      2  CA        16.9640   35.5200   -7.8840 C.3    32  TYR32       0.1605
      3  C         17.2300   36.5070   -9.0130 C.2    32  TYR32       0.2264
      4  O         16.5380   36.4950  -10.0350 O.2    32  TYR32      -0.2867
      5  CB        16.2220   36.2430   -6.7580 C.3    32  TYR32       0.0534
      6  CG        14.7500   36.3990   -7.0650 C.ar   32  TYR32      -0.0201
      7  CD1       13.8770   35.3210   -6.9300 C.ar   32  TYR32      -0.0009
      8  CD2       14.2360   37.6060   -7.5400 C.ar   32  TYR32      -0.0009
      9  CE1       12.5260   35.4410   -7.2600 C.ar   32  TYR32       0.0417
     10  CE2       12.8880   37.7330   -7.8800 C.ar   32  TYR32       0.0417
     11  CZ        12.0420   36.6480   -7.7360 C.ar   32  TYR32       0.1957
     12  OH        10.7140   36.7610   -8.0770 O.3    32  TYR32      -0.2866
     13  N         15.9840   36.4360  -13.0110 N.3    36  TYR36      -0.1241
     14  CA        15.1700   37.5230  -13.5440 C.3    36  TYR36       0.1605
     15  C         16.1130   38.6670  -13.8830 C.2    36  TYR36       0.2264
     16  O         16.1250   39.7020  -13.2120 O.2    36  TYR36      -0.2867
     17  CB        14.1520   37.9710  -12.4990 C.3    36  TYR36       0.0534
     18  CG        13.0940   36.9360  -12.2330 C.ar   36  TYR36      -0.0201
     19  CD1       12.0250   36.7630  -13.1130 C.ar   36  TYR36      -0.0009
     20  CD2       13.1720   36.1050  -11.1220 C.ar   36  TYR36      -0.0009
     21  CE1       11.0630   35.7880  -12.8910 C.ar   36  TYR36       0.0417
     22  CE2       12.2190   35.1290  -10.8920 C.ar   36  TYR36       0.0417
     23  CZ        11.1680   34.9750  -11.7790 C.ar   36  TYR36       0.1957
     24  OH        10.2270   34.0010  -11.5470 O.3    36  TYR36      -0.2866
     25  N         16.0460   41.1140  -15.7180 N.3    38  PHE38      -0.1227
     26  CA        15.5400   42.4530  -16.0160 C.3    38  PHE38       0.1736
     27  C         15.5910   43.3090  -14.7520 C.2    38  PHE38       0.2595
     28  O         15.4310   44.5290  -14.8080 O.2    38  PHE38      -0.2718
     29  CB        14.1080   42.4190  -16.5780 C.3    38  PHE38       0.0547
     30  CG        13.1310   41.6480  -15.7380 C.ar   38  PHE38      -0.0202
     31  CD1       12.9860   40.2740  -15.9000 C.ar   38  PHE38      -0.0042
     32  CD2       12.3510   42.2960  -14.7900 C.ar   38  PHE38      -0.0042
     33  CE1       12.0740   39.5570  -15.1300 C.ar   38  PHE38      -0.0003
     34  CE2       11.4370   41.5910  -14.0140 C.ar   38  PHE38      -0.0003
     35  CZ        11.2970   40.2180  -14.1840 C.ar   38  PHE38      -0.0000
     36  N         15.8210   42.6700  -13.6090 N.am   39  ILE39      -0.1980
     37  CA        15.9200   43.4010  -12.3540 C.3    39  ILE39       0.1595
     38  C         17.3190   43.9970  -12.2680 C.2    39  ILE39       0.2287
     39  O         18.3140   43.2680  -12.3070 O.2    39  ILE39      -0.2864
     40  CB        15.7020   42.4840  -11.1450 C.3    39  ILE39       0.0276
     41  CG1       14.3140   41.8530  -11.2190 C.3    39  ILE39       0.0022
     42  CG2       15.8490   43.2870   -9.8530 C.3    39  ILE39       0.0022
     43  CD1       14.0440   40.8620  -10.1060 C.3    39  ILE39       0.0001
     44  N          7.9410   51.3560   -3.8400 N.3   143  TYR143     -0.1241
     45  CA         7.4590   50.7360   -5.0770 C.3   143  TYR143      0.1605
     46  C          7.5470   51.6840   -6.2730 C.2   143  TYR143      0.2264
     47  O          7.7800   51.2420   -7.3970 O.2   143  TYR143     -0.2867
     48  CB         6.0390   50.1830   -4.8980 C.3   143  TYR143      0.0534
     49  CG         6.0690   48.7410   -4.4350 C.ar  143  TYR143     -0.0201
     50  CD1        6.2520   47.7010   -5.3520 C.ar  143  TYR143     -0.0009
     51  CD2        6.0430   48.4230   -3.0800 C.ar  143  TYR143     -0.0009
     52  CE1        6.4200   46.3800   -4.9260 C.ar  143  TYR143      0.0417
     53  CE2        6.2140   47.1060   -2.6430 C.ar  143  TYR143      0.0417
     54  CZ         6.4060   46.0970   -3.5720 C.ar  143  TYR143      0.1957
     55  OH         6.6140   44.8100   -3.1470 O.3   143  TYR143     -0.2866
     56  N         11.1390   51.5080   -7.2380 N.3   146  ALA146     -0.1231
     57  CA        11.4430   50.2420   -7.9020 C.3   146  ALA146      0.1694
     58  C         10.9080   50.2760   -9.3370 C.2   146  ALA146      0.2592
     59  O         11.5580   49.8020  -10.2700 O.2   146  ALA146     -0.2718
     60  CB        10.8180   49.0790   -7.1330 C.3   146  ALA146      0.0304
     61  N          9.7200   50.8470   -9.5030 N.am  147  GLY147     -0.1957
     62  CA         9.1150   50.9320  -10.8180 C.3   147  GLY147      0.1869
     63  C          9.9080   51.7650  -11.8100 C.2   147  GLY147      0.2309
     64  O          9.8760   51.5060  -13.0150 O.2   147  GLY147     -0.2863
     65  N         13.5930   47.7180  -10.3120 N.3   151  GLY151     -0.1210
     66  CA        14.0100   46.9890   -9.1310 C.3   151  GLY151      0.1956
     67  C         12.9030   46.2140   -8.4510 C.2   151  GLY151      0.2611
     68  O         11.7830   46.1320   -8.9540 O.2   151  GLY151     -0.2717
     69  N         13.2370   45.6160   -7.3140 N.am  152  VAL152     -0.1979
     70  CA        12.2790   44.8690   -6.5050 C.3   152  VAL152      0.1595
     71  C         12.4760   45.4050   -5.0970 C.2   152  VAL152      0.2287
     72  O         13.5650   45.8780   -4.7590 O.2   152  VAL152     -0.2864
     73  CB        12.5550   43.3420   -6.5070 C.3   152  VAL152      0.0276
     74  CG1       12.1640   42.7430   -7.8480 C.3   152  VAL152      0.0022
     75  CG2       14.0240   43.0710   -6.2170 C.3   152  VAL152      0.0022
     76  N          8.6260   42.4870   -2.0080 N.3   176  ASP176     -0.1225
     77  CA         8.7910   41.4830   -3.0580 C.3   176  ASP176      0.1805
     78  C          9.6090   40.2720   -2.6310 C.2   176  ASP176      0.2597
     79  O          9.2810   39.1350   -2.9750 O.2   176  ASP176     -0.2718
     80  CB         9.4670   42.0990   -4.2840 C.3   176  ASP176      0.1424
     81  CG         8.6480   43.2060   -4.9130 C.2   176  ASP176      0.3668
     82  OD1        7.4060   43.0960   -4.9160 O.co2 176  ASP176     -0.2456
     83  OD2        9.2540   44.1740   -5.4220 O.co2 176  ASP176     -0.2456
     84  N         10.6740   40.5120   -1.8800 N.am  177  ILE177     -0.1980
     85  CA        11.5440   39.4230   -1.4600 C.3   177  ILE177      0.1595
     86  C         12.0550   39.6880   -0.0440 C.2   177  ILE177      0.2287
     87  O         12.4770   40.8050    0.2700 O.2   177  ILE177     -0.2864
     88  CB        12.6930   39.2810   -2.4910 C.3   177  ILE177      0.0276
     89  CG1       13.6170   38.1250   -2.1190 C.3   177  ILE177      0.0022
     90  CG2       13.4580   40.6020   -2.6050 C.3   177  ILE177      0.0022
     91  CD1       14.6760   37.8570   -3.1800 C.3   177  ILE177      0.0001
@<TRIPOS>BOND
     1    29    26    1
     2    29    30    1
     3    26    25    1
     4    26    27    1
     5    31    30   ar
     6    31    33   ar
     7    30    32   ar
     8    33    35   ar
     9    28    27    2
    10    32    34   ar
    11    27    36   am
    12    35    34   ar
    13    15    14    1
    14    15    16    2
    15    36    37    1
    16    14    13    1
    17    14    17    1
    18    19    21   ar
    19    19    18   ar
    20    64    63    2
    21    21    23   ar
    22    17    18    1
    23    37    38    1
    24    37    40    1
    25    39    38    2
    26    18    20   ar
    27    63    62    1
    28    23    24    1
    29    23    22   ar
    30    41    40    1
    31    41    43    1
    32    40    42    1
    33    20    22   ar
    34    62    61    1
    35    65    66    1
    36    59    58    2
    37     4     3    2
    38    61    58   am
    39    58    57    1
    40    66    67    1
    41     3     2    1
    42    68    67    2
    43    67    69   am
    44    12    11    1
    45    57    56    1
    46    57    60    1
    47     2     1    1
    48     2     5    1
    49    10    11   ar
    50    10     8   ar
    51    74    73    1
    52    11     9   ar
    53     8     6   ar
    54    47    46    2
    55    69    70    1
    56     9     7   ar
    57     6     7   ar
    58     6     5    1
    59    73    70    1
    60    73    75    1
    61    70    71    1
    62    46    45    1
    63    83    81   ar
    64    50    52   ar
    65    50    49   ar
    66    71    72    2
    67    45    48    1
    68    45    44    1
    69    52    54   ar
    70    82    81   ar
    71    81    80    1
    72    48    49    1
    73    49    51   ar
    74    80    77    1
    75    54    55    1
    76    54    53   ar
    77    91    89    1
    78    51    53   ar
    79    77    78    1
    80    77    76    1
    81    79    78    2
    82    78    84   am
    83    90    88    1
    84    88    89    1
    85    88    85    1
    86    84    85    1
    87    85    86    1
    88    86    87    2
