@<TRIPOS>MOLECULE
tmp/1wxhA00.pdb
 149 146 0 0 0
SMALL
GASTEIGER

@<TRIPOS>ATOM
      1  N         15.7320   55.5570    8.8100 N.3   128  PHE128     -0.1241
      2  CA        15.3660   54.1450    8.8400 C.3   128  PHE128      0.1605
      3  C         16.0810   53.3430    7.7460 C.2   128  PHE128      0.2264
      4  O         16.6700   52.2920    8.0090 O.2   128  PHE128     -0.2867
      5  CB        13.8510   53.9840    8.6740 C.3   128  PHE128      0.0534
      6  CG        13.3910   52.5530    8.7140 C.ar  128  PHE128     -0.0203
      7  CD1       13.2860   51.8750    9.9270 C.ar  128  PHE128     -0.0042
      8  CD2       13.1140   51.8690    7.5340 C.ar  128  PHE128     -0.0042
      9  CE1       12.9130   50.5310    9.9630 C.ar  128  PHE128     -0.0003
     10  CE2       12.7410   50.5220    7.5580 C.ar  128  PHE128     -0.0003
     11  CZ        12.6420   49.8530    8.7710 C.ar  128  PHE128     -0.0000
     12  N         19.5920   50.2250    7.3350 N.3   132  ASN132     -0.1240
     13  CA        19.7760   49.0180    6.5370 C.3   132  ASN132      0.1653
     14  C         20.9690   49.1780    5.6080 C.2   132  ASN132      0.2266
     15  O         21.6570   48.2100    5.2830 O.2   132  ASN132     -0.2867
     16  CB        18.5100   48.7120    5.7400 C.3   132  ASN132      0.1155
     17  CG        17.3640   48.3130    6.6320 C.2   132  ASN132      0.2627
     18  OD1       17.5340   47.4960    7.5390 O.2   132  ASN132     -0.2716
     19  ND2       16.1860   48.8780    6.3890 N.am  132  ASN132     -0.0877
     20  N         24.3270   46.7050    5.1860 N.3   136  ARG136     -0.1245
     21  CA        24.8230   46.1910    3.9170 C.3   136  ARG136      0.1563
     22  C         26.2740   46.5870    3.6750 C.2   136  ARG136      0.2260
     23  O         27.0160   45.8520    3.0210 O.2   136  ARG136     -0.2867
     24  CB        23.9300   46.6520    2.7600 C.3   136  ARG136      0.0307
     25  CG        22.5650   45.9890    2.8130 C.3   136  ARG136      0.0489
     26  CD        21.6180   46.3870    1.6870 C.3   136  ARG136      0.2205
     27  NE        20.3520   45.6790    1.8690 N.pl3 136  ARG136     -0.0865
     28  CZ        19.2000   46.2540    2.1990 C.cat 136  ARG136      0.5346
     29  NH1       19.1230   47.5690    2.3720 N.pl3 136  ARG136      0.1354
     30  NH2       18.1320   45.4990    2.4070 N.pl3 136  ARG136      0.1354
     31  N         12.0860   38.1050   11.5020 N.3   165  GLY165     -0.1210
     32  CA        12.7210   38.6470   10.3160 C.3   165  GLY165      0.1956
     33  C         13.3960   39.9610   10.6520 C.2   165  GLY165      0.2612
     34  O         13.5640   40.8240    9.7900 O.2   165  GLY165     -0.2717
     35  N         13.7870   40.1160   11.9140 N.am  166  PHE166     -0.1962
     36  CA        14.4370   41.3450   12.3530 C.3   166  PHE166      0.1771
     37  C         15.9290   41.3770   12.0490 C.2   166  PHE166      0.2620
     38  O         16.7730   41.3450   12.9450 O.2   166  PHE166     -0.2715
     39  CB        14.1840   41.5810   13.8500 C.3   166  PHE166      0.0574
     40  CG        12.7520   41.9510   14.1770 C.ar  166  PHE166     -0.0200
     41  CD1       12.3590   42.1820   15.4920 C.ar  166  PHE166     -0.0042
     42  CD2       11.7930   42.0560   13.1670 C.ar  166  PHE166     -0.0042
     43  CE1       11.0320   42.5100   15.7990 C.ar  166  PHE166     -0.0003
     44  CE2       10.4680   42.3820   13.4630 C.ar  166  PHE166     -0.0003
     45  CZ        10.0860   42.6090   14.7800 C.ar  166  PHE166     -0.0000
     46  N         16.2360   41.4190   10.7590 N.am  167  PHE167     -0.1960
     47  CA        17.6010   41.5080   10.2740 C.3   167  PHE167      0.1771
     48  C         17.4920   42.1290    8.8930 C.2   167  PHE167      0.2620
     49  O         16.4260   42.0980    8.2730 O.2   167  PHE167     -0.2715
     50  CB        18.2870   40.1240   10.2350 C.3   167  PHE167      0.0574
     51  CG        17.6280   39.1190    9.3220 C.ar  167  PHE167     -0.0200
     52  CD1       17.9340   39.0800    7.9670 C.ar  167  PHE167     -0.0042
     53  CD2       16.7310   38.1870    9.8300 C.ar  167  PHE167     -0.0042
     54  CE1       17.3600   38.1210    7.1300 C.ar  167  PHE167     -0.0003
     55  CE2       16.1510   37.2240    9.0020 C.ar  167  PHE167     -0.0003
     56  CZ        16.4670   37.1910    7.6520 C.ar  167  PHE167     -0.0000
     57  N         18.5760   42.7290    8.4230 N.am  168  THR168     -0.1937
     58  CA        18.5600   43.3680    7.1190 C.3   168  THR168      0.2028
     59  C         18.8160   42.3580    6.0070 C.2   168  THR168      0.2642
     60  O         19.7870   41.5970    6.0530 O.2   168  THR168     -0.2714
     61  CB        19.6140   44.4890    7.0570 C.3   168  THR168      0.1808
     62  OG1       19.2850   45.5000    8.0200 O.3   168  THR168     -0.2208
     63  CG2       19.6480   45.1140    5.6690 C.3   168  THR168      0.0379
     64  N         17.9280   42.3450    5.0170 N.am  169  LYS169     -0.1977
     65  CA        18.0450   41.4380    3.8780 C.3   169  LYS169      0.1596
     66  C         19.3330   41.7720    3.1310 C.2   169  LYS169      0.2287
     67  O         19.5210   42.8990    2.6770 O.2   169  LYS169     -0.2864
     68  CB        16.8390   41.6150    2.9480 C.3   169  LYS169      0.0298
     69  CG        16.6570   40.5040    1.9140 C.3   169  LYS169      0.0038
     70  CD        15.3250   40.6800    1.1680 C.3   169  LYS169      0.0206
     71  CE        15.0150   39.4930    0.2540 C.3   169  LYS169      0.1093
     72  NZ        13.7060   39.6720   -0.4650 N.3   169  LYS169     -0.1314
     73  N         11.2650   44.1410   22.3750 N.3   205  VAL205     -0.1231
     74  CA        11.7870   43.8300   21.0520 C.3   205  VAL205      0.1692
     75  C         10.9960   44.6500   20.0390 C.2   205  VAL205      0.2592
     76  O         11.5700   45.2670   19.1420 O.2   205  VAL205     -0.2718
     77  CB        11.6220   42.3310   20.7160 C.3   205  VAL205      0.0266
     78  CG1       12.0690   42.0640   19.2840 C.3   205  VAL205      0.0020
     79  CG2       12.4290   41.4870   21.6890 C.3   205  VAL205      0.0020
     80  N          9.6750   44.6540   20.2000 N.am  206  ALA206     -0.1966
     81  CA         8.7820   45.3940   19.3140 C.3   206  ALA206      0.1728
     82  C          7.3220   45.2330   19.7360 C.2   206  ALA206      0.2616
     83  O          6.9680   44.2800   20.4280 O.2   206  ALA206     -0.2715
     84  CB         8.9590   44.9140   17.8740 C.3   206  ALA206      0.0334
     85  N          6.4890   46.1800   19.3110 N.am  207  LEU207     -0.1977
     86  CA         5.0510   46.1820   19.5940 C.3   207  LEU207      0.1596
     87  C          4.6410   45.5490   20.9250 C.2   207  LEU207      0.2287
     88  O          3.6560   44.8110   20.9880 O.2   207  LEU207     -0.2864
     89  CB         4.2920   45.4790   18.4580 C.3   207  LEU207      0.0297
     90  CG         4.4460   45.9810   17.0170 C.3   207  LEU207      0.0022
     91  CD1        5.8730   45.7610   16.5330 C.3   207  LEU207      0.0001
     92  CD2        3.4730   45.2340   16.1160 C.3   207  LEU207      0.0001
     93  N          4.6120   39.2340   12.0250 N.3   234  TRP234     -0.1241
     94  CA         5.9770   39.5270   11.5960 C.3   234  TRP234      0.1605
     95  C          6.5480   38.3680   10.7870 C.2   234  TRP234      0.2264
     96  O          7.2130   38.5750    9.7710 O.2   234  TRP234     -0.2867
     97  CB         6.8760   39.7860   12.8110 C.3   234  TRP234      0.0550
     98  CG         6.7030   41.1430   13.4230 C.ar  234  TRP234      0.0003
     99  CD1        6.3830   41.4230   14.7200 C.ar  234  TRP234      0.0946
    100  CD2        6.8640   42.4080   12.7660 C.ar  234  TRP234      0.0152
    101  NE1        6.3330   42.7840   14.9130 N.ar  234  TRP234     -0.2442
    102  CE2        6.6240   43.4130   13.7310 C.ar  234  TRP234      0.0810
    103  CE3        7.1900   42.7900   11.4550 C.ar  234  TRP234      0.0012
    104  CZ2        6.6970   44.7800   13.4260 C.ar  234  TRP234      0.0191
    105  CZ3        7.2650   44.1530   11.1520 C.ar  234  TRP234      0.0001
    106  CH2        7.0180   45.1290   12.1360 C.ar  234  TRP234      0.0015
    107  N          4.9570   38.1120    7.2540 N.3   237  LYS237     -0.1231
    108  CA         5.3680   39.2850    6.4960 C.3   237  LYS237      0.1693
    109  C          6.8070   39.2090    5.9850 C.2   237  LYS237      0.2592
    110  O          7.1280   39.7530    4.9300 O.2   237  LYS237     -0.2718
    111  CB         5.2130   40.5300    7.3700 C.3   237  LYS237      0.0285
    112  CG         5.8610   41.7800    6.8090 C.3   237  LYS237      0.0035
    113  CD         5.8350   42.9090    7.8250 C.3   237  LYS237      0.0206
    114  CE         6.5930   44.1240    7.3140 C.3   237  LYS237      0.1093
    115  NZ         6.5680   45.2450    8.2950 N.3   237  LYS237     -0.1314
    116  N          7.6660   38.5180    6.7270 N.am  238  THR238     -0.1953
    117  CA         9.0760   38.4290    6.3660 C.3   238  THR238      0.1897
    118  C          9.5410   37.1050    5.7620 C.2   238  THR238      0.2313
    119  O         10.7390   36.8300    5.7180 O.2   238  THR238     -0.2863
    120  CB         9.9480   38.7410    7.5950 C.3   238  THR238      0.1794
    121  OG1        9.6140   37.8350    8.6510 O.3   238  THR238     -0.2208
    122  CG2        9.7040   40.1640    8.0780 C.3   238  THR238      0.0378
    123  N          9.8460   36.3100    2.8060 N.3   240  HIS240     -0.1226
    124  CA        10.7420   36.5570    1.6760 C.3   240  HIS240      0.1752
    125  C         12.2090   36.6680    2.0920 C.2   240  HIS240      0.2595
    126  O         13.1040   36.4710    1.2700 O.2   240  HIS240     -0.2718
    127  CB        10.3390   37.8310    0.9170 C.3   240  HIS240      0.0759
    128  CG        10.5990   39.0970    1.6710 C.ar  240  HIS240      0.0818
    129  ND1        9.7080   39.6160    2.5860 N.ar  240  HIS240     -0.2268
    130  CD2       11.6650   39.9300    1.6680 C.ar  240  HIS240      0.1154
    131  CE1       10.2150   40.7170    3.1140 C.ar  240  HIS240      0.1986
    132  NE2       11.4030   40.9290    2.5740 N.ar  240  HIS240     -0.2212
    133  N         12.4550   36.9890    3.3610 N.am  241  LYS241     -0.1980
    134  CA        13.8250   37.1260    3.8590 C.3   241  LYS241      0.1596
    135  C         14.4730   35.7880    4.1820 C.2   241  LYS241      0.2287
    136  O         15.6970   35.6890    4.2360 O.2   241  LYS241     -0.2864
    137  CB        13.8670   37.9830    5.1320 C.3   241  LYS241      0.0298
    138  CG        13.4620   39.4330    4.9600 C.3   241  LYS241      0.0038
    139  CD        13.7880   40.2130    6.2270 C.3   241  LYS241      0.0206
    140  CE        13.4080   41.6780    6.0960 C.3   241  LYS241      0.1093
    141  NZ        13.8290   42.4510    7.2950 N.3   241  LYS241     -0.1314
    142  N         12.5070   35.0410   -5.2900 N.3   246  ILE246     -0.1245
    143  CA        11.2800   34.4260   -5.7900 C.3   246  ILE246      0.1561
    144  C         11.2730   34.2090   -7.3060 C.2   246  ILE246      0.2260
    145  O         11.6570   35.0930   -8.0750 O.2   246  ILE246     -0.2867
    146  CB        10.0580   35.2840   -5.3680 C.3   246  ILE246      0.0252
    147  CG1       10.0520   35.4320   -3.8400 C.3   246  ILE246      0.0019
    148  CG2        8.7570   34.6280   -5.8300 C.3   246  ILE246      0.0019
    149  CD1        9.0390   36.4260   -3.3170 C.3   246  ILE246      0.0001
@<TRIPOS>BOND
     1   145   144    2
     2   144   143    1
     3   148   146    1
     4   143   146    1
     5   143   142    1
     6   146   147    1
     7   147   149    1
     8    72    71    1
     9    71    70    1
    10   127   128    1
    11   127   124    1
    12    70    69    1
    13   126   125    2
    14   130   128   ar
    15   130   132   ar
    16   128   129   ar
    17   124   125    1
    18   124   123    1
    19    26    27    1
    20    26    25    1
    21    27    28    2
    22    69    68    1
    23   125   133   am
    24    28    29    1
    25    28    30    1
    26   132   131   ar
    27   129   131   ar
    28    67    66    2
    29    24    25    1
    30    24    21    1
    31    68    65    1
    32    23    22    2
    33    66    65    1
    34   133   134    1
    35    22    21    1
    36   134   135    1
    37   134   137    1
    38    65    64    1
    39    21    20    1
    40   135   136    2
    41   110   109    2
    42   138   137    1
    43   138   139    1
    44    64    59   am
    45    15    14    2
    46    14    13    1
    47    63    61    1
    48   119   118    2
    49    16    13    1
    50    16    17    1
    51   118   117    1
    52   109   108    1
    53   109   116   am
    54    59    60    2
    55    59    58    1
    56   140   139    1
    57   140   141    1
    58   117   116    1
    59   117   120    1
    60    19    17   am
    61   108   107    1
    62   108   111    1
    63    13    12    1
    64    17    18    2
    65   112   111    1
    66   112   113    1
    67    61    58    1
    68    61    62    1
    69    58    57    1
    70    54    56   ar
    71    54    52   ar
    72   114   113    1
    73   114   115    1
    74     8    10   ar
    75     8     6   ar
    76    10    11   ar
    77   120   122    1
    78   120   121    1
    79    56    55   ar
    80     3     4    2
    81     3     2    1
    82    52    51   ar
    83    49    48    2
    84    57    48   am
    85     5     6    1
    86     5     2    1
    87     6     7   ar
    88    11     9   ar
    89     1     2    1
    90    48    47    1
    91    55    53   ar
    92    51    53   ar
    93    51    50    1
    94    96    95    2
    95    34    33    2
    96     7     9   ar
    97    50    47    1
    98    47    46    1
    99    32    33    1
   100    32    31    1
   101    33    35   am
   102    46    37   am
   103    95    94    1
   104   105   103   ar
   105   105   106   ar
   106   103   100   ar
   107    94    93    1
   108    94    97    1
   109    35    36    1
   110    37    36    1
   111    37    38    2
   112   106   104   ar
   113    36    39    1
   114   100    98   ar
   115   100   102   ar
   116    97    98    1
   117    42    44   ar
   118    42    40   ar
   119    98    99   ar
   120   104   102   ar
   121    44    45   ar
   122   102   101   ar
   123    39    40    1
   124    40    41   ar
   125    99   101   ar
   126    45    43   ar
   127    41    43   ar
   128    92    90    1
   129    91    90    1
   130    90    89    1
   131    84    81    1
   132    89    86    1
   133    76    75    2
   134    78    77    1
   135    85    86    1
   136    85    82   am
   137    81    82    1
   138    81    80    1
   139    86    87    1
   140    82    83    2
   141    75    80   am
   142    75    74    1
   143    77    74    1
   144    77    79    1
   145    87    88    2
   146    74    73    1
