@<TRIPOS>MOLECULE
tmp/1wxiA01.pdb
 138 128 0 0 0
SMALL
GASTEIGER

@<TRIPOS>ATOM
      1  N         55.8310   49.1530   22.7770 N.3    44  LEU44      -0.1231
      2  CA        55.5670   48.8780   24.1790 C.3    44  LEU44       0.1693
      3  C         55.5270   50.1380   25.0320 C.2    44  LEU44       0.2593
      4  O         56.4050   50.9930   24.9270 O.2    44  LEU44      -0.2718
      5  CB        56.6450   47.9410   24.7290 C.3    44  LEU44       0.0284
      6  CG        56.6090   47.7310   26.2450 C.3    44  LEU44       0.0019
      7  CD1       55.4100   46.8660   26.6150 C.3    44  LEU44       0.0001
      8  CD2       57.9010   47.0640   26.6970 C.3    44  LEU44       0.0001
      9  N         54.5030   50.2490   25.8720 N.am   45  GLY45      -0.1942
     10  CA        54.4060   51.3990   26.7540 C.3    45  GLY45       0.2014
     11  C         55.3090   51.1830   27.9590 C.2    45  GLY45       0.2639
     12  O         55.2460   50.1380   28.6080 O.2    45  GLY45      -0.2714
     13  N         56.1560   52.1640   28.2550 N.am   46  ILE46      -0.1963
     14  CA        57.0740   52.0780   29.3870 C.3    46  ILE46       0.1727
     15  C         56.5710   52.9730   30.5160 C.2    46  ILE46       0.2616
     16  O         56.3680   54.1720   30.3250 O.2    46  ILE46      -0.2715
     17  CB        58.4980   52.4990   28.9670 C.3    46  ILE46       0.0290
     18  CG1       59.0850   51.4350   28.0350 C.3    46  ILE46       0.0022
     19  CG2       59.3780   52.7010   30.1980 C.3    46  ILE46       0.0023
     20  CD1       60.5170   51.6930   27.6190 C.3    46  ILE46       0.0001
     21  N         56.3720   52.3810   31.6890 N.am   47  SER47      -0.1950
     22  CA        55.8470   53.1130   32.8380 C.3    47  SER47       0.1924
     23  C         56.8410   53.3540   33.9630 C.2    47  SER47       0.2314
     24  O         56.5490   54.1030   34.8980 O.2    47  SER47      -0.2863
     25  CB        54.6470   52.3660   33.4090 C.3    47  SER47       0.2116
     26  OG        55.0430   51.0960   33.8980 O.3    47  SER47      -0.2180
     27  N         57.3430   45.2960   35.4610 N.3    51  ASP51      -0.1225
     28  CA        56.9140   44.5590   34.2780 C.3    51  ASP51       0.1805
     29  C         57.2860   45.1590   32.9230 C.2    51  ASP51       0.2598
     30  O         57.7850   44.4480   32.0490 O.2    51  ASP51      -0.2718
     31  CB        55.4010   44.3150   34.3320 C.3    51  ASP51       0.1424
     32  CG        54.9510   43.7020   35.6500 C.2    51  ASP51       0.3668
     33  OD1       55.7830   43.1100   36.3720 O.co2  51  ASP51      -0.2456
     34  OD2       53.7490   43.8000   35.9620 O.co2  51  ASP51      -0.2456
     35  N         57.0490   46.4540   32.7310 N.am   52  SER52      -0.1952
     36  CA        57.3740   47.0660   31.4490 C.3    52  SER52       0.1924
     37  C         58.8800   47.2310   31.2550 C.2    52  SER52       0.2314
     38  O         59.3650   47.2360   30.1230 O.2    52  SER52      -0.2863
     39  CB        56.6500   48.4140   31.2790 C.3    52  SER52       0.2116
     40  OG        57.0070   49.3530   32.2770 O.3    52  SER52      -0.2180
     41  N         57.2350   53.6170   24.2900 N.3    80  VAL80      -0.1231
     42  CA        56.2870   54.7250   24.3230 C.3    80  VAL80       0.1692
     43  C         55.9980   55.1990   25.7410 C.2    80  VAL80       0.2592
     44  O         55.5640   54.4200   26.5890 O.2    80  VAL80      -0.2718
     45  CB        54.9470   54.3240   23.6540 C.3    80  VAL80       0.0266
     46  CG1       54.0440   55.5490   23.5100 C.3    80  VAL80       0.0020
     47  CG2       55.2130   53.6940   22.2890 C.3    80  VAL80       0.0020
     48  N         56.2620   56.4770   26.0010 N.am   81  ARG81      -0.1966
     49  CA        55.9730   57.0670   27.3030 C.3    81  ARG81       0.1729
     50  C         54.5710   57.6510   27.1560 C.2    81  ARG81       0.2616
     51  O         54.3100   58.3950   26.2150 O.2    81  ARG81      -0.2715
     52  CB        56.9780   58.1730   27.6270 C.3    81  ARG81       0.0348
     53  CG        58.3350   57.6490   28.0660 C.3    81  ARG81       0.0492
     54  CD        58.2430   57.0130   29.4460 C.3    81  ARG81       0.2205
     55  NE        57.8310   57.9850   30.4600 N.pl3  81  ARG81      -0.0865
     56  CZ        56.7000   57.9170   31.1560 C.cat  81  ARG81       0.5346
     57  NH1       55.8520   56.9160   30.9600 N.pl3  81  ARG81       0.1354
     58  NH2       56.4120   58.8600   32.0450 N.pl3  81  ARG81       0.1354
     59  N         53.6720   57.2990   28.0730 N.am   82  LEU82      -0.1977
     60  CA        52.2850   57.7620   28.0130 C.3    82  LEU82       0.1596
     61  C         51.8420   58.3940   29.3260 C.2    82  LEU82       0.2287
     62  O         50.9360   57.9050   29.9990 O.2    82  LEU82      -0.2864
     63  CB        51.3710   56.5790   27.6760 C.3    82  LEU82       0.0297
     64  CG        51.6520   55.8920   26.3370 C.3    82  LEU82       0.0022
     65  CD1       51.1620   54.4480   26.3760 C.3    82  LEU82       0.0001
     66  CD2       50.9770   56.6690   25.2190 C.3    82  LEU82       0.0001
     67  N         53.7960   62.8150   35.1360 N.3    87  GLN87      -0.1245
     68  CA        53.9090   61.5690   35.8920 C.3    87  GLN87       0.1566
     69  C         54.8590   61.7150   37.0800 C.2    87  GLN87       0.2260
     70  O         55.9330   62.3070   36.9640 O.2    87  GLN87      -0.2867
     71  CB        54.3670   60.4240   34.9780 C.3    87  GLN87       0.0367
     72  CG        54.4530   59.0710   35.6820 C.3    87  GLN87       0.0905
     73  CD        54.5540   57.9000   34.7190 C.2    87  GLN87       0.2608
     74  OE1       54.8190   56.7680   35.1280 O.2    87  GLN87      -0.2717
     75  NE2       54.3320   58.1650   33.4360 N.am   87  GLN87      -0.0878
     76  N         45.6510   54.5900   26.5250 N.3   141  ARG141     -0.1245
     77  CA        47.0270   54.1700   26.2930 C.3   141  ARG141      0.1563
     78  C         47.0530   53.0590   25.2510 C.2   141  ARG141      0.2260
     79  O         47.9680   52.9840   24.4360 O.2   141  ARG141     -0.2867
     80  CB        47.6840   53.7050   27.5990 C.3   141  ARG141      0.0307
     81  CG        48.0010   54.8640   28.5440 C.3   141  ARG141      0.0489
     82  CD        48.8930   54.4430   29.7070 C.3   141  ARG141      0.2205
     83  NE        49.2850   55.6080   30.5000 N.pl3 141  ARG141     -0.0865
     84  CZ        48.7250   55.9710   31.6510 C.cat 141  ARG141      0.5346
     85  NH1       47.7360   55.2590   32.1750 N.pl3 141  ARG141      0.1354
     86  NH2       49.1490   57.0660   32.2730 N.pl3 141  ARG141      0.1354
     87  N         48.9740   53.2820   21.4910 N.3   145  GLN145     -0.1245
     88  CA        49.9160   52.2680   21.0460 C.3   145  GLN145      0.1566
     89  C         49.5000   51.6130   19.7370 C.2   145  GLN145      0.2260
     90  O         50.3470   51.3430   18.8890 O.2   145  GLN145     -0.2867
     91  CB        50.0980   51.2050   22.1280 C.3   145  GLN145      0.0367
     92  CG        50.7500   51.7510   23.3870 C.3   145  GLN145      0.0905
     93  CD        50.8700   50.7100   24.4690 C.2   145  GLN145      0.2608
     94  OE1       51.6730   49.7830   24.3680 O.2   145  GLN145     -0.2717
     95  NE2       50.0650   50.8500   25.5160 N.am  145  GLN145     -0.0878
     96  N         52.4890   43.2510   28.8720 N.3   159  THR159     -0.1218
     97  CA        53.2810   42.8630   30.0360 C.3   159  THR159      0.1862
     98  C         52.5650   41.8770   30.9590 C.2   159  THR159      0.2287
     99  O         53.0640   41.5600   32.0410 O.2   159  THR159     -0.2866
    100  CB        53.6850   44.0980   30.8680 C.3   159  THR159      0.1770
    101  OG1       52.5070   44.8000   31.2930 O.3   159  THR159     -0.2211
    102  CG2       54.5550   45.0340   30.0390 C.3   159  THR159      0.0375
    103  N         49.2980   38.5950   37.4960 N.3   164  GLU164     -0.1245
    104  CA        48.2570   39.5650   37.1820 C.3   164  GLU164      0.1567
    105  C         47.0760   38.8680   36.5210 C.2   164  GLU164      0.2260
    106  O         45.9210   39.2390   36.7380 O.2   164  GLU164     -0.2867
    107  CB        48.7990   40.6610   36.2620 C.3   164  GLU164      0.0388
    108  CG        49.6750   41.6740   36.9860 C.3   164  GLU164      0.1160
    109  CD        50.1820   42.7760   36.0770 C.2   164  GLU164      0.3649
    110  OE1       50.8360   43.7100   36.5870 O.co2 164  GLU164     -0.2457
    111  OE2       49.9260   42.7090   34.8550 O.co2 164  GLU164     -0.2457
    112  N         43.7550   41.3240   37.2170 N.3   169  PHE169     -0.1241
    113  CA        44.1300   42.6740   37.5930 C.3   169  PHE169      0.1605
    114  C         44.7110   43.4700   36.4330 C.2   169  PHE169      0.2264
    115  O         45.8960   43.8210   36.4130 O.2   169  PHE169     -0.2867
    116  CB        45.1160   42.6330   38.7650 C.3   169  PHE169      0.0534
    117  CG        45.2600   43.9440   39.4800 C.ar  169  PHE169     -0.0203
    118  CD1       46.2770   44.8320   39.1430 C.ar  169  PHE169     -0.0042
    119  CD2       44.3650   44.3000   40.4860 C.ar  169  PHE169     -0.0042
    120  CE1       46.4020   46.0600   39.8000 C.ar  169  PHE169     -0.0003
    121  CE2       44.4770   45.5220   41.1470 C.ar  169  PHE169     -0.0003
    122  CZ        45.4990   46.4040   40.8040 C.ar  169  PHE169     -0.0000
    123  N         45.1760   47.7920   29.2660 N.3   175  ASP175     -0.1239
    124  CA        46.5250   47.2480   29.2110 C.3   175  ASP175      0.1674
    125  C         46.4230   45.7600   28.8700 C.2   175  ASP175      0.2266
    126  O         47.4220   45.0990   28.5930 O.2   175  ASP175     -0.2867
    127  CB        47.2690   47.4790   30.5370 C.3   175  ASP175      0.1410
    128  CG        46.4870   47.0080   31.7530 C.2   175  ASP175      0.3668
    129  OD1       45.2970   47.3520   31.8780 O.co2 175  ASP175     -0.2456
    130  OD2       47.0750   46.3030   32.5990 O.co2 175  ASP175     -0.2456
    131  N         48.3560   47.6560   44.5780 N.3   209  ASP209     -0.1239
    132  CA        47.6210   46.4570   44.0810 C.3   209  ASP209      0.1674
    133  C         47.1190   45.6050   45.2420 C.2   209  ASP209      0.2266
    134  O         45.9440   45.2430   45.3000 O.2   209  ASP209     -0.2867
    135  CB        48.5350   45.6030   43.1930 C.3   209  ASP209      0.1410
    136  CG        49.0370   46.3520   41.9720 C.2   209  ASP209      0.3668
    137  OD1       49.7680   45.7400   41.1620 O.co2 209  ASP209     -0.2456
    138  OD2       48.7060   47.5470   41.8180 O.co2 209  ASP209     -0.2456
@<TRIPOS>BOND
     1    90    89    2
     2    89    88    1
     3    88    87    1
     4    88    91    1
     5    91    92    1
     6    47    45    1
     7     1     2    1
     8    92    93    1
     9    46    45    1
    10    45    42    1
    11     2     5    1
    12     2     3    1
    13    41    42    1
    14    42    43    1
    15    94    93    2
    16    79    78    2
    17    93    95   am
    18     5     6    1
    19     4     3    2
    20     3     9   am
    21    66    64    1
    22    78    77    1
    23    43    48   am
    24    43    44    2
    25     9    10    1
    26    48    49    1
    27    51    50    2
    28     6     7    1
    29     6     8    1
    30    77    76    1
    31    77    80    1
    32    64    65    1
    33    64    63    1
    34    10    11    1
    35    50    49    1
    36    50    59   am
    37    49    52    1
    38    80    81    1
    39    20    18    1
    40    52    53    1
    41    63    60    1
    42    11    13   am
    43    11    12    2
    44    60    59    1
    45    60    61    1
    46    18    17    1
    47    53    54    1
    48    13    14    1
    49    81    82    1
    50   126   125    2
    51   125   124    1
    52    96    97    1
    53    17    14    1
    54    17    19    1
    55   124   123    1
    56   124   127    1
    57    61    62    2
    58    14    15    1
    59    54    55    1
    60    82    83    1
    61    97   100    1
    62    97    98    1
    63   102   100    1
    64    38    37    2
    65    16    15    2
    66    55    56    2
    67    83    84    2
    68    15    21   am
    69   127   128    1
    70   100   101    1
    71    98    99    2
    72    57    56    1
    73    56    58    1
    74    37    36    1
    75    39    36    1
    76    39    40    1
    77    36    35    1
    78    84    85    1
    79    84    86    1
    80    21    22    1
    81   128   129   ar
    82   128   130   ar
    83    30    29    2
    84    35    29   am
    85    22    25    1
    86    22    23    1
    87    29    28    1
    88    25    26    1
    89    75    73   am
    90    23    24    2
    91    28    31    1
    92    28    27    1
    93    31    32    1
    94    73    74    2
    95    73    72    1
    96   111   109   ar
    97    71    72    1
    98    71    68    1
    99    67    68    1
   100    32    34   ar
   101    32    33   ar
   102    68    69    1
   103   109   110   ar
   104   109   108    1
   105   107   108    1
   106   107   104    1
   107   115   114    2
   108   114   113    1
   109   105   106    2
   110   105   104    1
   111    70    69    2
   112   104   103    1
   113   112   113    1
   114   113   116    1
   115   116   117    1
   116   118   117   ar
   117   118   120   ar
   118   117   119   ar
   119   120   122   ar
   120   119   121   ar
   121   122   121   ar
   122   137   136   ar
   123   138   136   ar
   124   136   135    1
   125   135   132    1
   126   132   131    1
   127   132   133    1
   128   133   134    2
