@<TRIPOS>MOLECULE
tmp/1wxiA00.pdb
 93 89 0 0 0
SMALL
GASTEIGER

@<TRIPOS>ATOM
      1  N         37.6780   55.1770   39.8150 N.3   131  PHE131     -0.1241
      2  CA        38.0080   53.8380   39.3490 C.3   131  PHE131      0.1605
      3  C         37.8070   53.7220   37.8430 C.2   131  PHE131      0.2264
      4  O         38.6830   53.2350   37.1280 O.2   131  PHE131     -0.2867
      5  CB        37.1460   52.7910   40.0550 C.3   131  PHE131      0.0534
      6  CG        37.3900   51.3900   39.5730 C.ar  131  PHE131     -0.0203
      7  CD1       38.6290   50.7840   39.7580 C.ar  131  PHE131     -0.0042
      8  CD2       36.3930   50.6860   38.9080 C.ar  131  PHE131     -0.0042
      9  CE1       38.8720   49.4950   39.2850 C.ar  131  PHE131     -0.0003
     10  CE2       36.6250   49.3990   38.4320 C.ar  131  PHE131     -0.0003
     11  CZ        37.8680   48.8020   38.6200 C.ar  131  PHE131     -0.0000
     12  N         40.3870   53.1880   34.2990 N.3   135  ASN135     -0.1240
     13  CA        40.2820   52.2530   33.1800 C.3   135  ASN135      0.1653
     14  C         40.2780   53.0120   31.8610 C.2   135  ASN135      0.2266
     15  O         40.8040   52.5450   30.8530 O.2   135  ASN135     -0.2867
     16  CB        39.0040   51.4180   33.2880 C.3   135  ASN135      0.1155
     17  CG        39.0220   50.4820   34.4730 C.2   135  ASN135      0.2627
     18  OD1       40.0580   49.9070   34.8070 O.2   135  ASN135     -0.2716
     19  ND2       37.8670   50.3070   35.1060 N.am  135  ASN135     -0.0877
     20  N         42.6730   52.5360   28.6250 N.3   139  ARG139     -0.1245
     21  CA        42.1810   52.3300   27.2690 C.3   139  ARG139      0.1563
     22  C         42.7120   53.3890   26.2960 C.2   139  ARG139      0.2260
     23  O         42.8830   53.1160   25.1090 O.2   139  ARG139     -0.2867
     24  CB        40.6460   52.2940   27.2660 C.3   139  ARG139      0.0307
     25  CG        40.1090   51.1020   28.0390 C.3   139  ARG139      0.0489
     26  CD        38.6100   50.8740   27.8880 C.3   139  ARG139      0.2205
     27  NE        38.2510   49.6320   28.5690 N.pl3 139  ARG139     -0.0865
     28  CZ        37.6330   49.5640   29.7420 C.cat 139  ARG139      0.5346
     29  NH1       37.2720   50.6700   30.3840 N.pl3 139  ARG139      0.1354
     30  NH2       37.4090   48.3800   30.2950 N.pl3 139  ARG139      0.1354
     31  N         43.8560   43.7340   35.4530 N.3   170  PHE170     -0.1227
     32  CA        44.2170   44.5180   34.2840 C.3   170  PHE170      0.1736
     33  C         42.9210   45.0400   33.6950 C.2   170  PHE170      0.2596
     34  O         41.8510   44.4860   33.9520 O.2   170  PHE170     -0.2718
     35  CB        45.0060   43.6830   33.2580 C.3   170  PHE170      0.0547
     36  CG        44.2750   42.4760   32.7300 C.ar  170  PHE170     -0.0202
     37  CD1       43.3400   42.5970   31.7030 C.ar  170  PHE170     -0.0042
     38  CD2       44.5570   41.2070   33.2310 C.ar  170  PHE170     -0.0042
     39  CE1       42.7000   41.4750   31.1800 C.ar  170  PHE170     -0.0003
     40  CE2       43.9210   40.0760   32.7160 C.ar  170  PHE170     -0.0003
     41  CZ        42.9910   40.2080   31.6870 C.ar  170  PHE170     -0.0000
     42  N         43.0080   46.1230   32.9350 N.am  171  THR171     -0.1939
     43  CA        41.8200   46.7050   32.3310 C.3   171  THR171      0.2028
     44  C         41.4520   45.9760   31.0420 C.2   171  THR171      0.2642
     45  O         42.2740   45.8380   30.1320 O.2   171  THR171     -0.2714
     46  CB        42.0350   48.2000   32.0270 C.3   171  THR171      0.1808
     47  OG1       42.2810   48.9020   33.2550 O.3   171  THR171     -0.2208
     48  CG2       40.8100   48.7920   31.3390 C.3   171  THR171      0.0379
     49  N         40.2110   45.5030   30.9790 N.am  172  LYS172     -0.1977
     50  CA        39.7180   44.7960   29.8020 C.3   172  LYS172      0.1596
     51  C         39.8090   45.7370   28.5950 C.2   172  LYS172      0.2287
     52  O         39.2060   46.8070   28.5850 O.2   172  LYS172     -0.2864
     53  CB        38.2680   44.3590   30.0350 C.3   172  LYS172      0.0298
     54  CG        37.7500   43.3280   29.0400 C.3   172  LYS172      0.0038
     55  CD        36.4100   42.7650   29.5000 C.3   172  LYS172      0.0206
     56  CE        35.9480   41.6290   28.5990 C.3   172  LYS172      0.1093
     57  NZ        34.6430   41.0700   29.0570 N.3   172  LYS172     -0.1314
     58  N         35.7230   35.0360   39.1540 N.3   243  LYS243     -0.1245
     59  CA        35.0050   36.2640   38.8340 C.3   243  LYS243      0.1561
     60  C         35.4990   36.9490   37.5560 C.2   243  LYS243      0.2260
     61  O         34.7250   37.6140   36.8630 O.2   243  LYS243     -0.2867
     62  CB        35.1200   37.2430   40.0060 C.3   243  LYS243      0.0271
     63  CG        34.4890   38.6030   39.7560 C.3   243  LYS243      0.0035
     64  CD        34.8280   39.5870   40.8690 C.3   243  LYS243      0.0206
     65  CE        34.2350   40.9630   40.5830 C.3   243  LYS243      0.1093
     66  NZ        34.5890   41.9620   41.6290 N.3   243  LYS243     -0.1314
     67  N         35.9240   36.1540   32.3250 N.3   246  HIS246     -0.1226
     68  CA        35.5300   36.8650   31.1100 C.3   246  HIS246      0.1752
     69  C         36.6580   37.7150   30.5260 C.2   246  HIS246      0.2595
     70  O         36.6500   38.0260   29.3360 O.2   246  HIS246     -0.2718
     71  CB        34.3030   37.7510   31.3690 C.3   246  HIS246      0.0759
     72  CG        34.5850   38.9550   32.2130 C.ar  246  HIS246      0.0818
     73  ND1       34.5980   38.9140   33.5900 N.ar  246  HIS246     -0.2268
     74  CD2       34.8570   40.2370   31.8720 C.ar  246  HIS246      0.1154
     75  CE1       34.8630   40.1210   34.0620 C.ar  246  HIS246      0.1986
     76  NE2       35.0240   40.9420   33.0400 N.ar  246  HIS246     -0.2212
     77  N         37.6260   38.0880   31.3600 N.am  247  LYS247     -0.1980
     78  CA        38.7490   38.9060   30.9050 C.3   247  LYS247      0.1596
     79  C         39.8270   38.1000   30.1870 C.2   247  LYS247      0.2287
     80  O         40.6480   38.6640   29.4590 O.2   247  LYS247     -0.2864
     81  CB        39.4020   39.6330   32.0870 C.3   247  LYS247      0.0298
     82  CG        38.5530   40.7020   32.7490 C.3   247  LYS247      0.0038
     83  CD        39.4190   41.5430   33.6760 C.3   247  LYS247      0.0206
     84  CE        38.6310   42.6420   34.3510 C.3   247  LYS247      0.1093
     85  NZ        39.5270   43.5030   35.1830 N.3   247  LYS247     -0.1314
     86  N         31.7540   36.5310   24.8440 N.3   252  ILE252     -0.1245
     87  CA        30.8510   35.4030   25.0620 C.3   252  ILE252      0.1561
     88  C         29.7860   35.2250   23.9740 C.2   252  ILE252      0.2260
     89  O         29.1430   36.1890   23.5490 O.2   252  ILE252     -0.2867
     90  CB        30.1570   35.5430   26.4340 C.3   252  ILE252      0.0252
     91  CG1       31.2220   35.6460   27.5310 C.3   252  ILE252      0.0019
     92  CG2       29.2340   34.3470   26.6850 C.3   252  ILE252      0.0019
     93  CD1       30.7070   36.1490   28.8570 C.3   252  ILE252      0.0001
@<TRIPOS>BOND
     1    89    88    2
     2    88    87    1
     3    86    87    1
     4    87    90    1
     5    23    22    2
     6    22    21    1
     7    90    92    1
     8    90    91    1
     9    24    21    1
    10    24    25    1
    11    21    20    1
    12    91    93    1
    13    26    25    1
    14    26    27    1
    15    27    28    2
    16    52    51    2
    17    51    50    1
    18    56    57    1
    19    56    55    1
    20    54    55    1
    21    54    53    1
    22    70    69    2
    23    80    79    2
    24    28    30    1
    25    28    29    1
    26    50    53    1
    27    50    49    1
    28    45    44    2
    29    79    78    1
    30    69    68    1
    31    69    77   am
    32    15    14    2
    33    78    77    1
    34    78    81    1
    35    49    44   am
    36    44    43    1
    37    68    71    1
    38    68    67    1
    39    39    41   ar
    40    39    37   ar
    41    48    46    1
    42    71    72    1
    43    41    40   ar
    44    37    36   ar
    45    14    13    1
    46    74    72   ar
    47    74    76   ar
    48    46    43    1
    49    46    47    1
    50    81    82    1
    51    72    73   ar
    52    43    42    1
    53    40    38   ar
    54    36    38   ar
    55    36    35    1
    56    82    83    1
    57    42    33   am
    58    76    75   ar
    59    13    16    1
    60    13    12    1
    61    35    32    1
    62    16    17    1
    63    73    75   ar
    64    83    84    1
    65    33    34    2
    66    33    32    1
    67    32    31    1
    68    84    85    1
    69    17    18    2
    70    17    19   am
    71    61    60    2
    72     4     3    2
    73    60    59    1
    74     3     2    1
    75    10    11   ar
    76    10     8   ar
    77    11     9   ar
    78    59    58    1
    79    59    62    1
    80     8     6   ar
    81     9     7   ar
    82     2     1    1
    83     2     5    1
    84     6     7   ar
    85     6     5    1
    86    63    62    1
    87    63    64    1
    88    65    64    1
    89    65    66    1
