@<TRIPOS>MOLECULE
tmp/1wxjA00.pdb
 137 130 0 0 0
SMALL
GASTEIGER

@<TRIPOS>ATOM
      1  N          0.7120    0.5540   13.6030 N.3    21  TYR21      -0.1241
      2  CA        -0.6380    0.4380   13.0620 C.3    21  TYR21       0.1605
      3  C         -0.4380    0.0710   11.5990 C.2    21  TYR21       0.2264
      4  O          0.3140    0.7420   10.8920 O.2    21  TYR21      -0.2867
      5  CB        -1.3930    1.7720   13.1270 C.3    21  TYR21       0.0534
      6  CG        -2.6760    1.7700   12.3130 C.ar   21  TYR21      -0.0201
      7  CD1       -3.8720    1.3040   12.8570 C.ar   21  TYR21      -0.0009
      8  CD2       -2.6790    2.1870   10.9780 C.ar   21  TYR21      -0.0009
      9  CE1       -5.0400    1.2530   12.0950 C.ar   21  TYR21       0.0417
     10  CE2       -3.8410    2.1360   10.2060 C.ar   21  TYR21       0.0417
     11  CZ        -5.0170    1.6690   10.7730 C.ar   21  TYR21       0.1957
     12  OH        -6.1710    1.6230   10.0200 O.3    21  TYR21      -0.2866
     13  N         -1.7380   -2.9370   16.0470 N.3    47  GLU47      -0.1245
     14  CA        -3.0760   -2.5410   15.6310 C.3    47  GLU47       0.1567
     15  C         -3.2050   -2.8560   14.1490 C.2    47  GLU47       0.2260
     16  O         -2.3280   -2.5090   13.3510 O.2    47  GLU47      -0.2867
     17  CB        -3.2960   -1.0410   15.8420 C.3    47  GLU47       0.0388
     18  CG        -3.2970   -0.6030   17.2870 C.3    47  GLU47       0.1160
     19  CD        -3.6320    0.8680   17.4430 C.2    47  GLU47       0.3649
     20  OE1       -3.9020    1.5400   16.4240 O.co2  47  GLU47      -0.2457
     21  OE2       -3.6320    1.3500   18.5900 O.co2  47  GLU47      -0.2457
     22  N         -7.8160   10.3680    8.1770 N.3    54  GLY54      -0.1225
     23  CA        -6.6180   11.1730    7.8570 C.3    54  GLY54       0.1811
     24  C         -6.1900   10.8540    6.4050 C.2    54  GLY54       0.2280
     25  O         -6.3820    9.7710    5.9410 O.2    54  GLY54      -0.2866
     26  N         -3.6480    7.7350    5.9640 N.3    57  ILE57      -0.1245
     27  CA        -4.3070    6.4840    6.3180 C.3    57  ILE57       0.1561
     28  C         -5.4090    6.2070    5.2920 C.2    57  ILE57       0.2260
     29  O         -5.6910    5.0560    4.9570 O.2    57  ILE57      -0.2867
     30  CB        -4.9310    6.5610    7.7340 C.3    57  ILE57       0.0252
     31  CG1       -3.8490    6.8760    8.7720 C.3    57  ILE57       0.0019
     32  CG2       -5.6160    5.2470    8.0760 C.3    57  ILE57       0.0019
     33  CD1       -2.7830    5.7990    8.9150 C.3    57  ILE57       0.0001
     34  N         -8.8180   -2.2800   14.4630 N.3    92  MET92      -0.1245
     35  CA        -9.4540   -0.9720   14.4580 C.3    92  MET92       0.1570
     36  C        -10.5160   -1.0070   13.3720 C.2    92  MET92       0.2261
     37  O        -10.2450   -1.4030   12.2380 O.2    92  MET92      -0.2867
     38  CB        -8.4330    0.1270   14.1610 C.3    92  MET92       0.0387
     39  CG        -8.9920    1.5530   14.2050 C.3    92  MET92       0.0595
     40  SD       -10.1640    1.9390   12.8860 S.3    92  MET92      -0.1393
     41  CE        -9.0590    2.5240   11.6020 C.3    92  MET92       0.0692
     42  N        -14.4750    0.9570   12.0080 N.3    94  TYR94      -0.1241
     43  CA       -15.5830    1.8860   12.1360 C.3    94  TYR94       0.1605
     44  C        -16.8040    1.0030   12.3510 C.2    94  TYR94       0.2264
     45  O        -16.7540   -0.1960   12.0800 O.2    94  TYR94      -0.2867
     46  CB       -15.7220    2.7110   10.8560 C.3    94  TYR94       0.0534
     47  CG       -14.6710    3.7830   10.7480 C.ar   94  TYR94      -0.0201
     48  CD1      -14.7740    4.9570   11.4930 C.ar   94  TYR94      -0.0009
     49  CD2      -13.5440    3.6050    9.9500 C.ar   94  TYR94      -0.0009
     50  CE1      -13.7790    5.9270   11.4500 C.ar   94  TYR94       0.0417
     51  CE2      -12.5390    4.5730    9.9010 C.ar   94  TYR94       0.0417
     52  CZ       -12.6650    5.7280   10.6550 C.ar   94  TYR94       0.1957
     53  OH       -11.6740    6.6840   10.6190 O.3    94  TYR94      -0.2866
     54  N        -13.2120    3.7880   16.9010 N.3   121  PRO121     -0.2116
     55  CA       -13.1030    5.2430   16.7680 C.3   121  PRO121      0.1372
     56  C        -14.3750    6.0520   16.5690 C.2   121  PRO121      0.2244
     57  O        -14.4050    7.2320   16.9210 O.2   121  PRO121     -0.2868
     58  CB       -12.1240    5.4100   15.6070 C.3   121  PRO121      0.0268
     59  CG       -12.3740    4.1980   14.7750 C.3   121  PRO121      0.0207
     60  CD       -12.4920    3.1090   15.8080 C.3   121  PRO121      0.0892
     61  N        -11.7250    6.2360   21.8510 N.3   145  LEU145     -0.1245
     62  CA       -10.9070    7.4240   21.6570 C.3   145  LEU145      0.1561
     63  C        -11.3220    8.6840   22.4000 C.2   145  LEU145      0.2260
     64  O        -12.4970    8.8960   22.7000 O.2   145  LEU145     -0.2867
     65  CB       -10.8230    7.7540   20.1630 C.3   145  LEU145      0.0270
     66  CG        -9.8530    6.9730   19.2700 C.3   145  LEU145      0.0019
     67  CD1      -10.1570    5.4840   19.3120 C.3   145  LEU145      0.0001
     68  CD2       -9.9680    7.5040   17.8530 C.3   145  LEU145      0.0001
     69  N         -7.2460    5.4440   23.9270 N.3   167  TYR167     -0.1241
     70  CA        -6.5340    6.0540   22.8110 C.3   167  TYR167      0.1605
     71  C         -6.7760    7.5620   22.7270 C.2   167  TYR167      0.2264
     72  O         -7.9000    7.9940   22.4850 O.2   167  TYR167     -0.2867
     73  CB        -7.0380    5.4010   21.5230 C.3   167  TYR167      0.0534
     74  CG        -6.2310    5.7780   20.2930 C.ar  167  TYR167     -0.0201
     75  CD1       -6.7380    5.5700   19.0120 C.ar  167  TYR167     -0.0009
     76  CD2       -4.9580    6.3430   20.4110 C.ar  167  TYR167     -0.0009
     77  CE1       -6.0020    5.9160   17.8780 C.ar  167  TYR167      0.0417
     78  CE2       -4.2140    6.6920   19.2840 C.ar  167  TYR167      0.0417
     79  CZ        -4.7420    6.4770   18.0220 C.ar  167  TYR167      0.1957
     80  OH        -4.0140    6.8270   16.9070 O.3   167  TYR167     -0.2866
     81  N         -6.1010   11.0450   20.7520 N.3   169  VAL169     -0.1245
     82  CA        -5.6830   11.5370   19.4420 C.3   169  VAL169      0.1561
     83  C         -5.6400   13.0610   19.4070 C.2   169  VAL169      0.2260
     84  O         -6.0760   13.7270   20.3460 O.2   169  VAL169     -0.2867
     85  CB        -6.6310   11.0360   18.3330 C.3   169  VAL169      0.0252
     86  CG1       -6.5350    9.5260   18.2110 C.3   169  VAL169      0.0019
     87  CG2       -8.0620   11.4480   18.6490 C.3   169  VAL169      0.0019
     88  N         -1.6990    9.0700   19.4900 N.3   190  GLY190     -0.1210
     89  CA        -1.3780    9.0430   18.0790 C.3   190  GLY190      0.1956
     90  C         -1.5060   10.4450   17.5230 C.2   190  GLY190      0.2612
     91  O         -2.5870   11.0330   17.5690 O.2   190  GLY190     -0.2717
     92  N         -0.4080   10.9980   17.0200 N.am  191  PHE191     -0.1962
     93  CA        -0.4450   12.3400   16.4520 C.3   191  PHE191      0.1771
     94  C          0.5580   12.5070   15.3140 C.2   191  PHE191      0.2620
     95  O          1.2270   13.5310   15.1960 O.2   191  PHE191     -0.2715
     96  CB        -0.2160   13.3950   17.5460 C.3   191  PHE191      0.0574
     97  CG         1.1750   13.4090   18.1090 C.ar  191  PHE191     -0.0200
     98  CD1        2.1170   14.3280   17.6520 C.ar  191  PHE191     -0.0042
     99  CD2        1.5460   12.5100   19.0960 C.ar  191  PHE191     -0.0042
    100  CE1        3.4060   14.3490   18.1730 C.ar  191  PHE191     -0.0003
    101  CE2        2.8310   12.5240   19.6210 C.ar  191  PHE191     -0.0003
    102  CZ         3.7640   13.4460   19.1590 C.ar  191  PHE191     -0.0000
    103  N          0.6460   11.4830   14.4740 N.am  192  GLY192     -0.1940
    104  CA         1.5410   11.5220   13.3340 C.3   192  GLY192      0.2014
    105  C          3.0250   11.4440   13.6340 C.2   192  GLY192      0.2638
    106  O          3.8250   12.0830   12.9490 O.2   192  GLY192     -0.2714
    107  N          3.4020   10.6720   14.6480 N.am  193  VAL193     -0.1977
    108  CA         4.8150   10.5260   14.9900 C.3   193  VAL193      0.1596
    109  C          5.5510   10.0430   13.7430 C.2   193  VAL193      0.2287
    110  O          5.1180    9.1050   13.0770 O.2   193  VAL193     -0.2864
    111  CB         5.0140    9.5160   16.1370 C.3   193  VAL193      0.0276
    112  CG1        6.4960    9.2530   16.3520 C.3   193  VAL193      0.0022
    113  CG2        4.3960   10.0610   17.4140 C.3   193  VAL193      0.0022
    114  N          1.2320    5.2220   19.0320 N.3   209  VAL209     -0.1231
    115  CA         0.8580    4.5290   17.8100 C.3   209  VAL209      0.1692
    116  C          1.6040    5.1440   16.6350 C.2   209  VAL209      0.2592
    117  O          1.8070    6.3590   16.5820 O.2   209  VAL209     -0.2718
    118  CB        -0.6620    4.6300   17.5630 C.3   209  VAL209      0.0266
    119  CG1       -1.0430    3.8650   16.2970 C.3   209  VAL209      0.0020
    120  CG2       -1.4150    4.0790   18.7720 C.3   209  VAL209      0.0020
    121  N          2.0190    4.2970   15.7020 N.am  210  VAL210     -0.1966
    122  CA         2.7440    4.7510   14.5200 C.3   210  VAL210      0.1727
    123  C          1.9920    4.2200   13.3080 C.2   210  VAL210      0.2617
    124  O          2.0380    3.0290   13.0150 O.2   210  VAL210     -0.2715
    125  CB         4.1950    4.2100   14.5180 C.3   210  VAL210      0.0290
    126  CG1        4.9500    4.7220   13.2960 C.3   210  VAL210      0.0023
    127  CG2        4.9080    4.6460   15.7870 C.3   210  VAL210      0.0023
    128  N          1.2860    5.1060   12.6130 N.am  211  GLY211     -0.1940
    129  CA         0.5270    4.6760   11.4530 C.3   211  GLY211      0.2014
    130  C          0.9190    5.3420   10.1510 C.2   211  GLY211      0.2639
    131  O          1.4340    4.6830    9.2480 O.2   211  GLY211     -0.2714
    132  N          0.6790    6.6450   10.0480 N.am  212  SER212     -0.1949
    133  CA         0.9960    7.3760    8.8280 C.3   212  SER212      0.1924
    134  C          2.4510    7.2330    8.3990 C.2   212  SER212      0.2314
    135  O          2.7340    7.0870    7.2080 O.2   212  SER212     -0.2863
    136  CB         0.6390    8.8550    8.9960 C.3   212  SER212      0.2116
    137  OG        -0.7570    9.0010    9.1910 O.3   212  SER212     -0.2180
@<TRIPOS>BOND
     1    29    28    2
     2    28    27    1
     3    25    24    2
     4    26    27    1
     5    27    30    1
     6    24    23    1
     7   135   134    2
     8    30    32    1
     9    30    31    1
    10    23    22    1
    11   134   133    1
    12    31    33    1
    13   133   136    1
    14   133   132    1
    15   136   137    1
    16   131   130    2
    17    51    49   ar
    18    51    52   ar
    19    49    47   ar
    20    12    11    1
    21   132   130   am
    22   130   129    1
    23    10    11   ar
    24    10     8   ar
    25    53    52    1
    26    52    50   ar
    27    47    46    1
    28    47    48   ar
    29    11     9   ar
    30    46    43    1
    31     4     3    2
    32     8     6   ar
    33    50    48   ar
    34   129   128    1
    35     3     2    1
    36    41    40    1
    37    42    43    1
    38    45    44    2
    39     9     7   ar
    40    43    44    1
    41    37    36    2
    42     6     7   ar
    43     6     5    1
    44   128   123   am
    45    40    39    1
    46   106   105    2
    47   124   123    2
    48     2     5    1
    49     2     1    1
    50   110   109    2
    51   126   125    1
    52   123   122    1
    53   104   105    1
    54   104   103    1
    55    16    15    2
    56    36    35    1
    57   105   107   am
    58   109   108    1
    59    15    14    1
    60    38    39    1
    61    38    35    1
    62    35    34    1
    63   103    94   am
    64   125   122    1
    65   125   127    1
    66   122   121    1
    67   107   108    1
    68    59    58    1
    69    59    60    1
    70   108   111    1
    71    95    94    2
    72    94    93    1
    73    58    55    1
    74    14    17    1
    75    14    13    1
    76   121   116   am
    77    60    54    1
    78    17    18    1
    79   111   112    1
    80   111   113    1
    81   119   118    1
    82    20    19   ar
    83    93    92    1
    84    93    96    1
    85    56    55    1
    86    56    57    2
    87   117   116    2
    88   116   115    1
    89    55    54    1
    90    80    79    1
    91    92    90   am
    92    18    19    1
    93    19    21   ar
    94    90    91    2
    95    90    89    1
    96    96    97    1
    97   118   115    1
    98   118   120    1
    99    98    97   ar
   100    98   100   ar
   101   115   114    1
   102    68    66    1
   103    77    79   ar
   104    77    75   ar
   105    79    78   ar
   106    89    88    1
   107    97    99   ar
   108   100   102   ar
   109    86    85    1
   110    85    87    1
   111    85    82    1
   112    75    74   ar
   113    99   101   ar
   114   102   101   ar
   115    66    67    1
   116    66    65    1
   117    78    76   ar
   118    83    82    1
   119    83    84    2
   120    82    81    1
   121    65    62    1
   122    74    76   ar
   123    74    73    1
   124    73    70    1
   125    62    61    1
   126    62    63    1
   127    63    64    2
   128    72    71    2
   129    71    70    1
   130    70    69    1
