@<TRIPOS>MOLECULE
tmp/1wxyA00.pdb
 194 187 0 0 0
SMALL
GASTEIGER

@<TRIPOS>ATOM
      1  N         63.1850   60.5890   40.6870 N.3    14  HIS14      -0.1241
      2  CA        61.8390   61.0360   40.9480 C.3    14  HIS14       0.1621
      3  C         61.0450   61.4730   39.6560 C.2    14  HIS14       0.2264
      4  O         61.2890   62.4450   38.9940 O.2    14  HIS14      -0.2867
      5  CB        61.9360   62.2740   41.9170 C.3    14  HIS14       0.0745
      6  CG        62.4850   62.1490   43.3130 C.ar   14  HIS14       0.0817
      7  ND1       61.6840   62.0350   44.3850 N.ar   14  HIS14      -0.2268
      8  CD2       63.8040   62.0110   43.7600 C.ar   14  HIS14       0.1154
      9  CE1       62.4570   61.7910   45.5040 C.ar   14  HIS14       0.1986
     10  NE2       63.7580   61.7880   45.1480 N.ar   14  HIS14      -0.2212
     11  N         58.3830   63.4340   39.3170 N.3    16  ASP16      -0.1239
     12  CA        58.2200   64.9140   39.4240 C.3    16  ASP16       0.1674
     13  C         59.4130   65.7890   39.3230 C.2    16  ASP16       0.2266
     14  O         59.3190   66.9770   39.1200 O.2    16  ASP16      -0.2867
     15  CB        57.3800   65.3980   40.5880 C.3    16  ASP16       0.1410
     16  CG        57.8000   64.8700   41.9950 C.2    16  ASP16       0.3668
     17  OD1       56.9110   64.5870   42.7630 O.co2  16  ASP16      -0.2456
     18  OD2       58.9530   64.7240   42.3170 O.co2  16  ASP16      -0.2456
     19  N         72.0570   75.2260   45.6160 N.3    53  LEU53      -0.1231
     20  CA        71.1310   76.1970   46.2070 C.3    53  LEU53       0.1693
     21  C         70.9620   76.1090   47.7280 C.2    53  LEU53       0.2593
     22  O         71.2310   75.1290   48.4370 O.2    53  LEU53      -0.2718
     23  CB        69.7410   76.1450   45.5480 C.3    53  LEU53       0.0284
     24  CG        69.6890   76.4500   44.0600 C.3    53  LEU53       0.0019
     25  CD1       68.2870   76.3810   43.4880 C.3    53  LEU53       0.0001
     26  CD2       70.2130   77.8460   43.7920 C.3    53  LEU53       0.0001
     27  N         70.3810   77.1950   48.1940 N.am   54  THR54      -0.1939
     28  CA        69.5340   77.0480   49.3890 C.3    54  THR54       0.2028
     29  C         68.3450   76.0880   49.2220 C.2    54  THR54       0.2642
     30  O         67.8260   75.9490   48.1260 O.2    54  THR54      -0.2714
     31  CB        69.1930   78.5100   49.7830 C.3    54  THR54       0.1808
     32  OG1       69.7560   78.7970   51.0510 O.3    54  THR54      -0.2208
     33  CG2       67.8050   79.0680   49.7710 C.3    54  THR54       0.0379
     34  N         67.9300   75.4540   50.3100 N.am   55  LEU55      -0.1977
     35  CA        66.6790   74.6830   50.4640 C.3    55  LEU55       0.1596
     36  C         65.3410   75.3230   50.1230 C.2    55  LEU55       0.2287
     37  O         64.5530   74.7950   49.3230 O.2    55  LEU55      -0.2864
     38  CB        66.6550   74.0580   51.8980 C.3    55  LEU55       0.0297
     39  CG        65.5530   73.0300   52.2680 C.3    55  LEU55       0.0022
     40  CD1       64.3290   73.6390   52.8680 C.3    55  LEU55       0.0001
     41  CD2       65.2420   72.1170   51.0870 C.3    55  LEU55       0.0001
     42  N         65.6540   75.7430   46.1950 N.3    58  PHE58      -0.1227
     43  CA        65.2400   74.4270   45.6920 C.3    58  PHE58       0.1736
     44  C         63.7720   74.0260   45.7280 C.2    58  PHE58       0.2595
     45  O         63.1490   73.6630   44.7490 O.2    58  PHE58      -0.2718
     46  CB        66.0460   73.4050   46.5040 C.3    58  PHE58       0.0547
     47  CG        65.8190   72.0030   46.0160 C.ar   58  PHE58      -0.0202
     48  CD1       66.5690   71.5290   44.8970 C.ar   58  PHE58      -0.0042
     49  CD2       64.8270   71.2010   46.6320 C.ar   58  PHE58      -0.0042
     50  CE1       66.3040   70.2490   44.3670 C.ar   58  PHE58      -0.0003
     51  CE2       64.5740   69.9090   46.1140 C.ar   58  PHE58      -0.0003
     52  CZ        65.3320   69.4670   44.9990 C.ar   58  PHE58      -0.0000
     53  N         63.1600   74.0540   46.9520 N.am   59  LEU59      -0.1980
     54  CA        61.7200   73.7710   46.9110 C.3    59  LEU59       0.1596
     55  C         60.9100   74.6990   45.9840 C.2    59  LEU59       0.2287
     56  O         60.0530   74.3160   45.1890 O.2    59  LEU59      -0.2864
     57  CB        61.0470   73.7870   48.2860 C.3    59  LEU59       0.0297
     58  CG        61.7690   73.2660   49.5360 C.3    59  LEU59       0.0022
     59  CD1       61.2450   73.9700   50.7990 C.3    59  LEU59       0.0001
     60  CD2       61.8760   71.7840   49.6970 C.3    59  LEU59       0.0001
     61  N         60.0560   73.4920   42.5670 N.3    62  PHE62      -0.1241
     62  CA        58.8210   72.7100   42.5780 C.3    62  PHE62       0.1605
     63  C         57.5210   73.5340   42.5230 C.2    62  PHE62       0.2264
     64  O         56.5240   73.1720   41.8880 O.2    62  PHE62      -0.2867
     65  CB        58.7300   71.6720   43.7630 C.3    62  PHE62       0.0534
     66  CG        59.6630   70.4670   43.6420 C.ar   62  PHE62      -0.0203
     67  CD1       60.9510   70.5420   44.1840 C.ar   62  PHE62      -0.0042
     68  CD2       59.2430   69.3000   42.9510 C.ar   62  PHE62      -0.0042
     69  CE1       61.8340   69.4760   44.0160 C.ar   62  PHE62      -0.0003
     70  CE2       60.1400   68.2140   42.7560 C.ar   62  PHE62      -0.0003
     71  CZ        61.4240   68.3320   43.3100 C.ar   62  PHE62      -0.0000
     72  N         57.7570   58.8300   43.2830 N.3    99  TYR99      -0.1227
     73  CA        56.9220   60.0380   43.3780 C.3    99  TYR99       0.1736
     74  C         55.8340   59.9730   44.4530 C.2    99  TYR99       0.2596
     75  O         55.4300   58.9890   45.0600 O.2    99  TYR99      -0.2718
     76  CB        56.2590   60.3190   42.0040 C.3    99  TYR99       0.0548
     77  CG        55.2090   59.2600   41.7200 C.ar   99  TYR99      -0.0200
     78  CD1       53.8890   59.6560   41.9770 C.ar   99  TYR99      -0.0009
     79  CD2       55.5390   57.9550   41.2840 C.ar   99  TYR99      -0.0009
     80  CE1       52.8780   58.7060   41.8940 C.ar   99  TYR99       0.0417
     81  CE2       54.4990   57.0170   41.1610 C.ar   99  TYR99       0.0417
     82  CZ        53.1680   57.4020   41.4830 C.ar   99  TYR99       0.1957
     83  OH        52.0910   56.5150   41.3800 O.3    99  TYR99      -0.2866
     84  N         55.2900   61.1740   44.6470 N.am  100  SER100     -0.1952
     85  CA        54.3010   61.2180   45.7090 C.3   100  SER100      0.1924
     86  C         52.9810   61.3630   45.0680 C.2   100  SER100      0.2314
     87  O         52.6890   62.3550   44.4270 O.2   100  SER100     -0.2863
     88  CB        54.5910   62.4040   46.6360 C.3   100  SER100      0.2116
     89  OG        53.4000   62.9010   47.2820 O.3   100  SER100     -0.2180
     90  N         51.1210   64.6870   45.7400 N.3   103  LEU103     -0.1245
     91  CA        51.5020   65.9830   45.1650 C.3   103  LEU103      0.1561
     92  C         51.2670   66.1360   43.5670 C.2   103  LEU103      0.2260
     93  O         51.6980   67.0880   42.9050 O.2   103  LEU103     -0.2867
     94  CB        52.9950   66.2210   45.5330 C.3   103  LEU103      0.0270
     95  CG        53.3790   66.3520   46.9920 C.3   103  LEU103      0.0019
     96  CD1       54.9010   66.3580   47.1190 C.3   103  LEU103      0.0001
     97  CD2       52.8090   67.6350   47.6110 C.3   103  LEU103      0.0001
     98  N         50.6740   72.4960   46.2780 N.3   114  TRP114     -0.1241
     99  CA        51.0310   73.4960   45.2290 C.3   114  TRP114      0.1605
    100  C         50.1730   74.7630   45.0220 C.2   114  TRP114      0.2264
    101  O         50.2940   75.4930   44.0610 O.2   114  TRP114     -0.2867
    102  CB        51.2610   72.7950   43.8530 C.3   114  TRP114      0.0550
    103  CG        52.0910   71.5510   44.0390 C.ar  114  TRP114      0.0003
    104  CD1       51.6980   70.2430   43.7660 C.ar  114  TRP114      0.0946
    105  CD2       53.4310   71.4000   44.5180 C.ar  114  TRP114      0.0152
    106  NE1       52.6870   69.3470   44.0180 N.ar  114  TRP114     -0.2442
    107  CE2       53.7700   70.0320   44.4720 C.ar  114  TRP114      0.0810
    108  CE3       54.3550   72.3270   45.0000 C.ar  114  TRP114      0.0012
    109  CZ2       54.9970   69.5800   44.9260 C.ar  114  TRP114      0.0191
    110  CZ3       55.5940   71.8770   45.4860 C.ar  114  TRP114      0.0001
    111  CH2       55.9220   70.5040   45.4380 C.ar  114  TRP114      0.0015
    112  N         56.1420   57.6620   47.4690 N.3   150  CYS150     -0.1235
    113  CA        56.8140   58.4430   48.4790 C.3   150  CYS150      0.1677
    114  C         55.8240   58.9340   49.5690 C.2   150  CYS150      0.2270
    115  O         54.8800   59.6840   49.3060 O.2   150  CYS150     -0.2867
    116  CB        57.4380   59.6610   47.8020 C.3   150  CYS150      0.0956
    117  SG        58.7640   59.2230   46.7240 S.3   150  CYS150     -0.0801
    118  N         55.6650   61.6600   52.6360 N.3   152  MET152     -0.1245
    119  CA        56.4330   62.9600   52.7560 C.3   152  MET152      0.1570
    120  C         56.7260   63.3860   54.1540 C.2   152  MET152      0.2261
    121  O         55.9020   63.4550   55.0510 O.2   152  MET152     -0.2867
    122  CB        55.7650   64.1740   52.0800 C.3   152  MET152      0.0387
    123  CG        55.3320   63.9040   50.6290 C.3   152  MET152      0.0595
    124  SD        56.4970   64.4770   49.4620 S.3   152  MET152     -0.1393
    125  CE        58.0190   63.7780   49.8840 C.3   152  MET152      0.0692
    126  N         57.0110   66.0120   55.8060 N.3   154  HIS154     -0.1241
    127  CA        56.2640   67.0190   56.4950 C.3   154  HIS154      0.1621
    128  C         54.8070   66.8220   56.5800 C.2   154  HIS154      0.2264
    129  O         54.0500   67.6950   56.9780 O.2   154  HIS154     -0.2867
    130  CB        56.6150   68.3900   55.9670 C.3   154  HIS154      0.0745
    131  CG        56.0240   68.4620   54.6080 C.ar  154  HIS154      0.0817
    132  ND1       56.5480   67.8780   53.4950 N.ar  154  HIS154     -0.2268
    133  CD2       54.7850   69.0390   54.2900 C.ar  154  HIS154      0.1154
    134  CE1       55.6540   68.0810   52.5050 C.ar  154  HIS154      0.1986
    135  NE2       54.5920   68.7790   52.9680 N.ar  154  HIS154     -0.2212
    136  N         60.3870   60.6490   51.9320 N.3   180  ALA180     -0.1231
    137  CA        61.1980   61.6510   51.2160 C.3   180  ALA180      0.1694
    138  C         60.8100   63.1050   51.6050 C.2   180  ALA180      0.2593
    139  O         59.8360   63.3450   52.2740 O.2   180  ALA180     -0.2718
    140  CB        60.8450   61.5240   49.7120 C.3   180  ALA180      0.0304
    141  N         61.6310   64.0610   51.0870 N.am  181  GLY181     -0.1942
    142  CA        61.3350   65.4360   51.4630 C.3   181  GLY181      0.2014
    143  C         62.4700   66.0590   52.2440 C.2   181  GLY181      0.2639
    144  O         63.6060   65.5940   52.2420 O.2   181  GLY181     -0.2714
    145  N         62.0910   67.1250   52.9740 N.am  182  ASP182     -0.1957
    146  CA        63.0710   67.7140   53.9790 C.3   182  ASP182      0.1840
    147  C         63.6140   66.7560   55.0500 C.2   182  ASP182      0.2621
    148  O         63.0520   66.6980   56.1280 O.2   182  ASP182     -0.2715
    149  CB        62.3840   68.8740   54.7420 C.3   182  ASP182      0.1450
    150  CG        63.2520   69.8680   55.5500 C.2   182  ASP182      0.3671
    151  OD1       62.6890   70.9390   55.8560 O.co2 182  ASP182     -0.2456
    152  OD2       64.4240   69.6200   55.8750 O.co2 182  ASP182     -0.2456
    153  N         64.6990   66.0200   54.8110 N.am  183  GLU183     -0.1977
    154  CA        65.0470   65.2100   56.0240 C.3   183  GLU183      0.1602
    155  C         65.5590   65.9630   57.2850 C.2   183  GLU183      0.2287
    156  O         65.9890   65.3490   58.2450 O.2   183  GLU183     -0.2864
    157  CB        66.0490   64.1090   55.7940 C.3   183  GLU183      0.0415
    158  CG        67.2860   64.8670   55.3800 C.3   183  GLU183      0.1163
    159  CD        68.3640   63.8870   55.2590 C.2   183  GLU183      0.3649
    160  OE1       68.6240   63.1960   56.2100 O.co2 183  GLU183     -0.2457
    161  OE2       68.9440   63.7660   54.1950 O.co2 183  GLU183     -0.2457
    162  N         65.0850   58.1550   52.1650 N.3   211  HIS211     -0.1241
    163  CA        66.1350   59.1510   52.1850 C.3   211  HIS211      0.1621
    164  C         66.7400   59.5350   53.6000 C.2   211  HIS211      0.2264
    165  O         66.1600   60.2150   54.4730 O.2   211  HIS211     -0.2867
    166  CB        65.5720   60.4220   51.5600 C.3   211  HIS211      0.0745
    167  CG        65.1290   60.3880   50.0580 C.ar  211  HIS211      0.0817
    168  ND1       64.1910   59.6120   49.5110 N.ar  211  HIS211     -0.2268
    169  CD2       65.4780   61.3190   49.1230 C.ar  211  HIS211      0.1154
    170  CE1       63.9180   60.0350   48.3220 C.ar  211  HIS211      0.1986
    171  NE2       64.7030   61.1050   48.0510 N.ar  211  HIS211     -0.2212
    172  N         71.4640   62.4450   53.6640 N.3   214  GLU214     -0.1231
    173  CA        71.7660   63.1150   52.4370 C.3   214  GLU214      0.1699
    174  C         72.2390   64.4470   52.8020 C.2   214  GLU214      0.2592
    175  O         73.3640   64.8410   52.6300 O.2   214  GLU214     -0.2718
    176  CB        70.4930   63.3310   51.5700 C.3   214  GLU214      0.0402
    177  CG        70.7630   64.0170   50.1920 C.3   214  GLU214      0.1161
    178  CD        69.5270   64.5940   49.5510 C.2   214  GLU214      0.3649
    179  OE1       68.4100   64.2620   49.9270 O.co2 214  GLU214     -0.2457
    180  OE2       69.6990   65.4120   48.6650 O.co2 214  GLU214     -0.2457
    181  N         71.2840   65.1270   53.3580 N.am  215  VAL215     -0.1980
    182  CA        71.6410   66.4100   53.9600 C.3   215  VAL215      0.1595
    183  C         71.6160   66.4080   55.5670 C.2   215  VAL215      0.2287
    184  O         72.0280   67.3150   56.2630 O.2   215  VAL215     -0.2864
    185  CB        70.6730   67.3360   53.2690 C.3   215  VAL215      0.0276
    186  CG1       69.5320   67.7870   54.1080 C.3   215  VAL215      0.0022
    187  CG2       71.4810   68.3420   52.4510 C.3   215  VAL215      0.0022
    188  N         73.4150   69.9840   45.6680 N.3   266  THR266     -0.1218
    189  CA        72.4880   70.3540   46.7430 C.3   266  THR266      0.1862
    190  C         73.1640   70.8900   47.9750 C.2   266  THR266      0.2287
    191  O         72.5210   71.0580   49.0040 O.2   266  THR266     -0.2866
    192  CB        71.6010   69.2430   47.2280 C.3   266  THR266      0.1770
    193  OG1       72.4180   68.1500   47.6620 O.3   266  THR266     -0.2211
    194  CG2       70.5000   68.8270   46.2910 C.3   266  THR266      0.0375
@<TRIPOS>BOND
     1     4     3    2
     2    14    13    2
     3    11    12    1
     4    13    12    1
     5    12    15    1
     6     3     2    1
     7    15    16    1
     8     1     2    1
     9     2     5    1
    10    81    79   ar
    11    81    82   ar
    12    79    77   ar
    13    83    82    1
    14    82    80   ar
    15    77    78   ar
    16    77    76    1
    17    64    63    2
    18    80    78   ar
    19     5     6    1
    20    16    18   ar
    21    16    17   ar
    22    76    73    1
    23    63    62    1
    24    61    62    1
    25    62    65    1
    26    70    68   ar
    27    70    71   ar
    28    93    92    2
    29    68    66   ar
    30    72    73    1
    31    71    69   ar
    32     6     8   ar
    33     6     7   ar
    34    73    74    1
    35    25    24    1
    36    92    91    1
    37    66    65    1
    38    66    67   ar
    39     8    10   ar
    40   104   106   ar
    41   104   103   ar
    42    26    24    1
    43   102   103    1
    44   102    99    1
    45    69    67   ar
    46   106   107   ar
    47   103   105   ar
    48    24    23    1
    49   101   100    2
    50    50    48   ar
    51    50    52   ar
    52     7     9   ar
    53    87    86    2
    54    74    84   am
    55    74    75    2
    56   107   105   ar
    57   107   109   ar
    58   105   108   ar
    59    84    85    1
    60    45    44    2
    61    48    47   ar
    62   109   111   ar
    63    52    51   ar
    64   108   110   ar
    65   100    99    1
    66    86    85    1
    67    10     9   ar
    68    91    94    1
    69    91    90    1
    70    56    55    2
    71    99    98    1
    72   111   110   ar
    73    94    95    1
    74    23    20    1
    75    19    20    1
    76   188   189    1
    77    43    44    1
    78    43    42    1
    79    43    46    1
    80    85    88    1
    81    44    53   am
    82    55    54    1
    83    47    46    1
    84    47    49   ar
    85    51    49   ar
    86    20    21    1
    87   194   192    1
    88    88    89    1
    89   117   116    1
    90   189   192    1
    91   189   190    1
    92    54    53    1
    93    54    57    1
    94    95    96    1
    95    95    97    1
    96   192   193    1
    97   112   113    1
    98    21    27   am
    99    21    22    2
   100   116   113    1
   101   190   191    2
   102   171   170   ar
   103   171   169   ar
   104    30    29    2
   105    27    28    1
   106    57    58    1
   107   170   168   ar
   108   113   114    1
   109   180   178   ar
   110   169   167   ar
   111    29    28    1
   112    29    34   am
   113   115   114    2
   114    37    36    2
   115    28    31    1
   116   124   125    1
   117   124   123    1
   118   168   167   ar
   119    58    60    1
   120    58    59    1
   121   178   179   ar
   122   178   177    1
   123   140   137    1
   124    33    31    1
   125    31    32    1
   126   167   166    1
   127    36    35    1
   128   177   176    1
   129    34    35    1
   130    35    38    1
   131   123   122    1
   132   141   142    1
   133   141   138   am
   134    41    39    1
   135   137   138    1
   136   137   136    1
   137   142   143    1
   138   166   163    1
   139   176   173    1
   140   138   139    2
   141    38    39    1
   142   122   119    1
   143   162   163    1
   144   163   164    1
   145   144   143    2
   146   143   145   am
   147    39    40    1
   148   173   174    1
   149   173   172    1
   150   187   185    1
   151   134   135   ar
   152   134   132   ar
   153   175   174    2
   154   118   119    1
   155   119   120    1
   156   174   181   am
   157   135   133   ar
   158   145   146    1
   159   185   182    1
   160   185   186    1
   161   181   182    1
   162   132   131   ar
   163   164   165    2
   164   182   183    1
   165   146   149    1
   166   146   147    1
   167   120   121    2
   168   161   159   ar
   169   133   131   ar
   170   131   130    1
   171   149   150    1
   172   153   147   am
   173   153   154    1
   174   147   148    2
   175   159   158    1
   176   159   160   ar
   177   158   157    1
   178   150   151   ar
   179   150   152   ar
   180   183   184    2
   181   157   154    1
   182   126   127    1
   183   130   127    1
   184   154   155    1
   185   127   128    1
   186   128   129    2
   187   155   156    2
