@<TRIPOS>MOLECULE
tmp/1wxzA00.pdb
 222 214 0 0 0
SMALL
GASTEIGER

@<TRIPOS>ATOM
      1  N         56.1300   53.3380   26.3480 N.3    14  HIS14      -0.1241
      2  CA        55.6680   54.7080   26.1450 C.3    14  HIS14       0.1621
      3  C         55.3270   55.4160   27.4560 C.2    14  HIS14       0.2264
      4  O         54.5190   54.9370   28.2330 O.2    14  HIS14      -0.2867
      5  CB        54.4190   54.7190   25.2410 C.3    14  HIS14       0.0745
      6  CG        54.5740   53.9630   23.9510 C.ar   14  HIS14       0.0817
      7  ND1       54.5800   54.5860   22.7220 N.ar   14  HIS14      -0.2268
      8  CD2       54.6610   52.6330   23.6960 C.ar   14  HIS14       0.1154
      9  CE1       54.6590   53.6750   21.7660 C.ar   14  HIS14       0.1986
     10  NE2       54.7100   52.4810   22.3300 N.ar   14  HIS14      -0.2212
     11  N         53.5760   58.1750   27.9590 N.3    16  ASP16      -0.1239
     12  CA        52.1500   58.4900   27.9670 C.3    16  ASP16       0.1674
     13  C         51.2530   57.2440   28.0530 C.2    16  ASP16       0.2266
     14  O         50.0440   57.3200   27.8180 O.2    16  ASP16      -0.2867
     15  CB        51.7750   59.3010   26.7250 C.3    16  ASP16       0.1410
     16  CG        51.8390   58.4850   25.4480 C.2    16  ASP16       0.3668
     17  OD1       51.2240   58.9190   24.4540 O.co2  16  ASP16      -0.2456
     18  OD2       52.5000   57.4190   25.4270 O.co2  16  ASP16      -0.2456
     19  N         41.4380   48.0210   17.4200 N.3    55  LEU55      -0.1245
     20  CA        42.2260   49.2450   17.4110 C.3    55  LEU55       0.1561
     21  C         41.5030   50.4530   18.0220 C.2    55  LEU55       0.2260
     22  O         41.9790   51.0250   18.9990 O.2    55  LEU55      -0.2867
     23  CB        42.7000   49.5600   15.9870 C.3    55  LEU55       0.0270
     24  CG        43.6460   50.7570   15.8450 C.3    55  LEU55       0.0019
     25  CD1       44.7400   50.6810   16.9020 C.3    55  LEU55       0.0001
     26  CD2       44.2440   50.7750   14.4500 C.3    55  LEU55       0.0001
     27  N         41.1510   50.3540   21.7100 N.3    58  PHE58      -0.1227
     28  CA        42.4530   50.6440   22.3030 C.3    58  PHE58       0.1736
     29  C         42.7030   52.1540   22.3160 C.2    58  PHE58       0.2595
     30  O         42.9430   52.7430   23.3620 O.2    58  PHE58      -0.2718
     31  CB        43.5430   49.9280   21.4850 C.3    58  PHE58       0.0547
     32  CG        44.9440   50.3900   21.7880 C.ar   58  PHE58      -0.0202
     33  CD1       45.5330   50.1220   23.0130 C.ar   58  PHE58      -0.0042
     34  CD2       45.6550   51.1360   20.8570 C.ar   58  PHE58      -0.0042
     35  CE1       46.8040   50.5950   23.3060 C.ar   58  PHE58      -0.0003
     36  CE2       46.9200   51.6100   21.1440 C.ar   58  PHE58      -0.0003
     37  CZ        47.4950   51.3410   22.3700 C.ar   58  PHE58      -0.0000
     38  N         42.6220   52.7720   21.1420 N.am   59  LEU59      -0.1980
     39  CA        42.8400   54.2030   20.9810 C.3    59  LEU59       0.1596
     40  C         41.9820   55.0930   21.8760 C.2    59  LEU59       0.2287
     41  O         42.4130   56.1730   22.2800 O.2    59  LEU59      -0.2864
     42  CB        42.6160   54.5860   19.5190 C.3    59  LEU59       0.0297
     43  CG        43.5320   53.8420   18.5390 C.3    59  LEU59       0.0022
     44  CD1       43.1130   54.1440   17.1110 C.3    59  LEU59       0.0001
     45  CD2       44.9880   54.2360   18.7840 C.3    59  LEU59       0.0001
     46  N         43.3230   56.4010   25.4190 N.3    62  PHE62      -0.1241
     47  CA        44.0220   57.6720   25.5260 C.3    62  PHE62       0.1605
     48  C         43.0440   58.8380   25.6330 C.2    62  PHE62       0.2264
     49  O         43.2730   59.7810   26.3990 O.2    62  PHE62      -0.2867
     50  CB        44.9400   57.8850   24.3170 C.3    62  PHE62       0.0534
     51  CG        46.0920   56.9280   24.2540 C.ar   62  PHE62      -0.0203
     52  CD1       46.0690   55.8570   23.3870 C.ar   62  PHE62      -0.0042
     53  CD2       47.1870   57.0900   25.0850 C.ar   62  PHE62      -0.0042
     54  CE1       47.1130   54.9720   23.3480 C.ar   62  PHE62      -0.0003
     55  CE2       48.2360   56.2030   25.0490 C.ar   62  PHE62      -0.0003
     56  CZ        48.1960   55.1450   24.1830 C.ar   62  PHE62      -0.0000
     57  N         58.1560   58.7830   23.7420 N.3    99  TYR99      -0.1227
     58  CA        56.9440   59.6020   23.8010 C.3    99  TYR99       0.1736
     59  C         56.9310   60.6730   22.7180 C.2    99  TYR99       0.2596
     60  O         57.9620   61.0360   22.1650 O.2    99  TYR99      -0.2718
     61  CB        56.8140   60.2820   25.1700 C.3    99  TYR99       0.0548
     62  CG        57.8370   61.3660   25.4180 C.ar   99  TYR99      -0.0200
     63  CD1       57.5790   62.6900   25.0890 C.ar   99  TYR99      -0.0009
     64  CD2       59.0760   61.0600   25.9650 C.ar   99  TYR99      -0.0009
     65  CE1       58.5330   63.6790   25.3040 C.ar   99  TYR99       0.0417
     66  CE2       60.0310   62.0360   26.1800 C.ar   99  TYR99       0.0417
     67  CZ        59.7590   63.3430   25.8520 C.ar   99  TYR99       0.1957
     68  OH        60.7200   64.3040   26.0910 O.3    99  TYR99      -0.2866
     69  N         55.7440   61.1720   22.4130 N.am  100  SER100     -0.1952
     70  CA        55.6090   62.2210   21.4240 C.3   100  SER100      0.1924
     71  C         55.4380   63.5340   22.1560 C.2   100  SER100      0.2314
     72  O         54.3890   63.7960   22.7310 O.2   100  SER100     -0.2863
     73  CB        54.3840   61.9970   20.5610 C.3   100  SER100      0.2116
     74  OG        53.9570   63.2460   20.0430 O.3   100  SER100     -0.2180
     75  N         52.0930   65.3990   21.4810 N.3   103  LEU103     -0.1245
     76  CA        50.8470   64.9230   22.0960 C.3   103  LEU103      0.1561
     77  C         50.6440   65.3270   23.5630 C.2   103  LEU103      0.2260
     78  O         49.6320   64.9870   24.1790 O.2   103  LEU103     -0.2867
     79  CB        50.7360   63.4040   21.9550 C.3   103  LEU103      0.0270
     80  CG        50.7640   62.9600   20.4950 C.3   103  LEU103      0.0019
     81  CD1       50.4710   61.4810   20.4000 C.3   103  LEU103      0.0001
     82  CD2       49.7500   63.7560   19.7040 C.3   103  LEU103      0.0001
     83  N         44.1460   66.0870   21.4330 N.3   114  TRP114     -0.1241
     84  CA        43.0140   65.8160   22.3170 C.3   114  TRP114      0.1605
     85  C         42.1320   67.0240   22.6080 C.2   114  TRP114      0.2264
     86  O         41.9860   67.4090   23.7690 O.2   114  TRP114     -0.2867
     87  CB        43.5210   65.2560   23.6520 C.3   114  TRP114      0.0550
     88  CG        44.6960   64.3260   23.5370 C.ar  114  TRP114      0.0003
     89  CD1       45.9930   64.5970   23.8740 C.ar  114  TRP114      0.0946
     90  CD2       44.6820   62.9820   23.0470 C.ar  114  TRP114      0.0152
     91  NE1       46.7840   63.5020   23.6250 N.ar  114  TRP114     -0.2442
     92  CE2       46.0030   62.4980   23.1170 C.ar  114  TRP114      0.0810
     93  CE3       43.6800   62.1400   22.5540 C.ar  114  TRP114      0.0012
     94  CZ2       46.3470   61.2110   22.7140 C.ar  114  TRP114      0.0191
     95  CZ3       44.0250   60.8620   22.1520 C.ar  114  TRP114      0.0001
     96  CH2       45.3470   60.4110   22.2350 C.ar  114  TRP114      0.0015
     97  N         59.1180   60.3980   19.7510 N.3   150  CYS150     -0.1235
     98  CA        58.3330   59.7850   18.6860 C.3   150  CYS150      0.1677
     99  C         57.7180   60.6770   17.6160 C.2   150  CYS150      0.2270
    100  O         57.1560   61.7260   17.9040 O.2   150  CYS150     -0.2867
    101  CB        57.1800   58.9760   19.2850 C.3   150  CYS150      0.0956
    102  SG        57.5920   57.6920   20.4760 S.3   150  CYS150     -0.0801
    103  N         54.8640   60.7360   14.4620 N.3   152  MET152     -0.1245
    104  CA        53.5650   60.0920   14.2870 C.3   152  MET152      0.1570
    105  C         53.2700   59.8910   12.8010 C.2   152  MET152      0.2261
    106  O         53.2810   60.8310   12.0130 O.2   152  MET152     -0.2867
    107  CB        52.4500   60.9260   14.9270 C.3   152  MET152      0.0387
    108  CG        52.5900   61.1820   16.4250 C.3   152  MET152      0.0595
    109  SD        52.5230   59.7120   17.4720 S.3   152  MET152     -0.1393
    110  CE        51.0440   58.8800   16.8410 C.3   152  MET152      0.0692
    111  N         50.7070   59.6320   10.9390 N.3   154  HIS154     -0.1241
    112  CA        49.7650   60.5490   10.3230 C.3   154  HIS154      0.1621
    113  C         50.1730   62.0190   10.2430 C.2   154  HIS154      0.2264
    114  O         49.7370   62.7300    9.3410 O.2   154  HIS154     -0.2867
    115  CB        48.3910   60.4220   11.0070 C.3   154  HIS154      0.0745
    116  CG        48.3530   60.9290   12.4150 C.ar  154  HIS154      0.0817
    117  ND1       48.9960   60.2960   13.4560 N.ar  154  HIS154     -0.2268
    118  CD2       47.7360   62.0080   12.9540 C.ar  154  HIS154      0.1154
    119  CE1       48.7760   60.9620   14.5770 C.ar  154  HIS154      0.1986
    120  NE2       48.0130   62.0040   14.2990 N.ar  154  HIS154     -0.2212
    121  N         55.9260   56.2760   15.2470 N.3   180  ALA180     -0.1231
    122  CA        54.8120   55.5560   15.8540 C.3   180  ALA180      0.1694
    123  C         53.4640   56.0600   15.4030 C.2   180  ALA180      0.2593
    124  O         53.3690   57.0520   14.6870 O.2   180  ALA180     -0.2718
    125  CB        54.8990   55.6520   17.3700 C.3   180  ALA180      0.0304
    126  N         52.4200   55.3580   15.8280 N.am  181  GLY181     -0.1942
    127  CA        51.0710   55.7620   15.4930 C.3   181  GLY181      0.2014
    128  C         50.4240   55.2590   14.2130 C.2   181  GLY181      0.2639
    129  O         50.0800   56.0570   13.3310 O.2   181  GLY181     -0.2714
    130  N         50.2560   53.9470   14.0980 N.am  182  ASP182     -0.1957
    131  CA        49.5780   53.3620   12.9380 C.3   182  ASP182      0.1840
    132  C         50.3950   53.1660   11.6650 C.2   182  ASP182      0.2622
    133  O         50.3240   53.9470   10.7220 O.2   182  ASP182     -0.2715
    134  CB        48.3100   54.1670   12.6100 C.3   182  ASP182      0.1450
    135  CG        47.3890   53.4400   11.6430 C.2   182  ASP182      0.3671
    136  OD1       46.9910   52.2910   11.9260 O.co2 182  ASP182     -0.2456
    137  OD2       47.0550   54.0170   10.5940 O.co2 182  ASP182     -0.2456
    138  N         51.1490   52.0810   11.6400 N.am  183  GLU183     -0.1963
    139  CA        51.9680   51.7470   10.4940 C.3   183  GLU183      0.1733
    140  C         51.0690   51.2770    9.3510 C.2   183  GLU183      0.2617
    141  O         51.5320   51.0390    8.2340 O.2   183  GLU183     -0.2715
    142  CB        52.9270   50.6370   10.8910 C.3   183  GLU183      0.0429
    143  CG        52.2130   49.4660   11.5150 C.3   183  GLU183      0.1163
    144  CD        53.1620   48.3810   11.9600 C.2   183  GLU183      0.3649
    145  OE1       54.0440   48.0110   11.1570 O.co2 183  GLU183     -0.2457
    146  OE2       53.0220   47.8900   13.1040 O.co2 183  GLU183     -0.2457
    147  N         49.7780   51.1650    9.6470 N.am  184  THR184     -0.1951
    148  CA        48.7680   50.7040    8.7080 C.3   184  THR184      0.1897
    149  C         48.3930   51.6800    7.5900 C.2   184  THR184      0.2313
    150  O         47.8720   51.2600    6.5630 O.2   184  THR184     -0.2863
    151  CB        47.4900   50.2930    9.4770 C.3   184  THR184      0.1794
    152  OG1       47.0190   49.0390    8.9770 O.3   184  THR184     -0.2208
    153  CG2       46.3970   51.3380    9.3260 C.3   184  THR184      0.0378
    154  N         58.4560   51.6800   14.7570 N.3   211  HIS211     -0.1241
    155  CA        57.4220   50.6960   15.0620 C.3   211  HIS211      0.1621
    156  C         57.0990   50.1100   13.6960 C.2   211  HIS211      0.2264
    157  O         56.7960   50.8490   12.7630 O.2   211  HIS211     -0.2867
    158  CB        56.1560   51.3510   15.6130 C.3   211  HIS211      0.0745
    159  CG        56.1480   51.5560   17.0980 C.ar  211  HIS211      0.0817
    160  ND1       56.6660   52.6830   17.7000 N.ar  211  HIS211     -0.2268
    161  CD2       55.5950   50.8210   18.0940 C.ar  211  HIS211      0.1154
    162  CE1       56.4240   52.6390   18.9980 C.ar  211  HIS211      0.1986
    163  NE2       55.7740   51.5220   19.2620 N.ar  211  HIS211     -0.2212
    164  N         54.2450   45.1730   13.8680 N.3   214  GLU214     -0.1231
    165  CA        53.3470   44.8220   14.9540 C.3   214  GLU214      0.1699
    166  C         52.0370   44.3770   14.3240 C.2   214  GLU214      0.2592
    167  O         51.5140   43.3020   14.6250 O.2   214  GLU214     -0.2718
    168  CB        53.0800   46.0230   15.8440 C.3   214  GLU214      0.0402
    169  CG        51.9570   45.7740   16.8330 C.3   214  GLU214      0.1161
    170  CD        51.6130   47.0020   17.6410 C.2   214  GLU214      0.3649
    171  OE1       51.3840   48.0710   17.0340 O.co2 214  GLU214     -0.2457
    172  OE2       51.5630   46.8960   18.8830 O.co2 214  GLU214     -0.2457
    173  N         51.5170   45.2200   13.4400 N.am  215  VAL215     -0.1980
    174  CA        50.2710   44.9340   12.7500 C.3   215  VAL215      0.1595
    175  C         50.3650   45.3660   11.2850 C.2   215  VAL215      0.2287
    176  O         49.3530   45.5390   10.6120 O.2   215  VAL215     -0.2864
    177  CB        49.0890   45.6590   13.4430 C.3   215  VAL215      0.0276
    178  CG1       49.1230   47.1400   13.1270 C.3   215  VAL215      0.0022
    179  CG2       47.7870   45.0490   13.0200 C.3   215  VAL215      0.0022
    180  N         58.4600   45.7620   17.8410 N.3   235  HIS235     -0.1241
    181  CA        57.6460   44.5880   17.5150 C.3   235  HIS235      0.1621
    182  C         58.2560   43.8620   16.3050 C.2   235  HIS235      0.2264
    183  O         59.1430   43.0150   16.4530 O.2   235  HIS235     -0.2867
    184  CB        56.2050   45.0130   17.2080 C.3   235  HIS235      0.0745
    185  CG        55.5460   45.7680   18.3210 C.ar  235  HIS235      0.0817
    186  ND1       54.9990   45.1470   19.4210 N.ar  235  HIS235     -0.2268
    187  CD2       55.3650   47.0960   18.5120 C.ar  235  HIS235      0.1154
    188  CE1       54.5070   46.0570   20.2410 C.ar  235  HIS235      0.1986
    189  NE2       54.7160   47.2500   19.7120 N.ar  235  HIS235     -0.2212
    190  N         51.3310   42.9860   25.3020 N.3   262  SER262     -0.1217
    191  CA        50.7170   44.0170   24.4840 C.3   262  SER262      0.1889
    192  C         50.1940   43.4560   23.1710 C.2   262  SER262      0.2288
    193  O         49.0730   43.7680   22.7620 O.2   262  SER262     -0.2866
    194  CB        51.7180   45.1290   24.1950 C.3   262  SER262      0.2089
    195  OG        51.1030   46.1650   23.4480 O.3   262  SER262     -0.2183
    196  N         55.6130   47.9740   26.9730 N.3   292  ASP292     -0.1225
    197  CA        54.8890   48.8700   26.0710 C.3   292  ASP292      0.1805
    198  C         54.0160   49.9290   26.7520 C.2   292  ASP292      0.2597
    199  O         54.3800   51.0990   26.7710 O.2   292  ASP292     -0.2718
    200  CB        54.0610   48.0660   25.0710 C.3   292  ASP292      0.1424
    201  CG        53.9210   48.7820   23.7550 C.2   292  ASP292      0.3668
    202  OD1       53.4370   48.1710   22.7800 O.co2 292  ASP292     -0.2456
    203  OD2       54.3130   49.9690   23.7010 O.co2 292  ASP292     -0.2456
    204  N         52.8660   49.5330   27.2910 N.am  293  ASP293     -0.1974
    205  CA        51.9640   50.4670   27.9820 C.3   293  ASP293      0.1709
    206  C         51.4650   49.7940   29.2550 C.2   293  ASP293      0.2293
    207  O         50.3850   49.2060   29.2610 O.2   293  ASP293     -0.2864
    208  CB        50.7430   50.8060   27.1160 C.3   293  ASP293      0.1436
    209  CG        51.1150   51.3810   25.7640 C.2   293  ASP293      0.3671
    210  OD1       51.2400   52.6190   25.6410 O.co2 293  ASP293     -0.2456
    211  OD2       51.2820   50.5850   24.8200 O.co2 293  ASP293     -0.2456
    212  N         47.4890   48.3250   29.6300 N.3   297  PHE297     -0.1241
    213  CA        47.4980   46.8670   29.7010 C.3   297  PHE297      0.1605
    214  C         47.5670   46.2770   31.1210 C.2   297  PHE297      0.2264
    215  O         47.7440   45.0620   31.2870 O.2   297  PHE297     -0.2867
    216  CB        48.6550   46.3270   28.8570 C.3   297  PHE297      0.0534
    217  CG        48.7020   46.8930   27.4670 C.ar  297  PHE297     -0.0203
    218  CD1       47.5620   46.9320   26.6790 C.ar  297  PHE297     -0.0042
    219  CD2       49.8900   47.3620   26.9360 C.ar  297  PHE297     -0.0042
    220  CE1       47.6050   47.4250   25.3870 C.ar  297  PHE297     -0.0003
    221  CE2       49.9420   47.8580   25.6380 C.ar  297  PHE297     -0.0003
    222  CZ        48.7950   47.8880   24.8640 C.ar  297  PHE297     -0.0000
@<TRIPOS>BOND
     1   150   149    2
     2   149   148    1
     3   141   140    2
     4   148   151    1
     5   148   147    1
     6   152   151    1
     7   153   151    1
     8   114   113    2
     9   140   147   am
    10   140   139    1
    11   113   112    1
    12   112   111    1
    13   112   115    1
    14   139   142    1
    15   139   138    1
    16   137   135   ar
    17   176   175    2
    18   133   132    2
    19   142   143    1
    20   115   116    1
    21   145   144   ar
    22   175   174    1
    23   143   144    1
    24   138   132   am
    25   135   136   ar
    26   135   134    1
    27   132   131    1
    28   144   146   ar
    29   106   105    2
    30   116   118   ar
    31   116   117   ar
    32   134   131    1
    33   174   173    1
    34   174   177    1
    35   157   156    2
    36   105   104    1
    37   131   130    1
    38   118   120   ar
    39   179   177    1
    40   178   177    1
    41   129   128    2
    42   173   166   am
    43   117   119   ar
    44   156   155    1
    45   164   165    1
    46   130   128   am
    47   128   127    1
    48   104   103    1
    49   104   107    1
    50   120   119   ar
    51   166   167    2
    52   166   165    1
    53    26    24    1
    54   124   123    2
    55   154   155    1
    56   107   108    1
    57   165   168    1
    58   155   158    1
    59   121   122    1
    60   123   126   am
    61   123   122    1
    62   127   126    1
    63   158   159    1
    64   168   169    1
    65    24    23    1
    66    24    25    1
    67   122   125    1
    68    23    20    1
    69   182   183    2
    70   182   181    1
    71   108   109    1
    72   169   170    1
    73   110   109    1
    74   171   170   ar
    75   159   160   ar
    76   159   161   ar
    77    44    43    1
    78   184   181    1
    79   184   185    1
    80    20    19    1
    81    20    21    1
    82   181   180    1
    83    99   100    2
    84    99    98    1
    85   170   172   ar
    86   160   162   ar
    87    21    22    2
    88   161   163   ar
    89   185   187   ar
    90   185   186   ar
    91   187   189   ar
    92    43    45    1
    93    43    42    1
    94    98   101    1
    95    98    97    1
    96   162   163   ar
    97   101   102    1
    98   186   188   ar
    99    42    39    1
   100    82    80    1
   101   189   188   ar
   102    74    73    1
   103    81    80    1
   104    80    79    1
   105    73    70    1
   106    34    36   ar
   107    34    32   ar
   108    39    38    1
   109    39    40    1
   110    38    29   am
   111    36    37   ar
   112    70    71    1
   113    70    69    1
   114    83    84    1
   115    75    76    1
   116    31    32    1
   117    31    28    1
   118    27    28    1
   119     9    10   ar
   120     9     7   ar
   121    32    33   ar
   122    40    41    2
   123    79    76    1
   124    76    77    1
   125    95    96   ar
   126    95    93   ar
   127    71    72    2
   128    60    59    2
   129    96    94   ar
   130    28    29    1
   131    29    30    2
   132    84    85    1
   133    84    87    1
   134    10     8   ar
   135    37    35   ar
   136    69    59   am
   137    93    90   ar
   138    85    86    2
   139    94    92   ar
   140    59    58    1
   141     7     6   ar
   142   193   192    2
   143   202   201   ar
   144    33    35   ar
   145    90    92   ar
   146    90    88   ar
   147    92    91   ar
   148   192   191    1
   149    54    52   ar
   150    54    56   ar
   151    52    51   ar
   152   195   194    1
   153    88    87    1
   154    88    89   ar
   155    77    78    2
   156    91    89   ar
   157     8     6   ar
   158   203   201   ar
   159    57    58    1
   160   201   200    1
   161    58    61    1
   162     6     5    1
   163    56    55   ar
   164   194   191    1
   165    51    50    1
   166    51    53   ar
   167    50    47    1
   168    17    16   ar
   169   191   190    1
   170   211   209   ar
   171   222   220   ar
   172   222   221   ar
   173    55    53   ar
   174   200   197    1
   175    63    65   ar
   176    63    62   ar
   177    61    62    1
   178     5     2    1
   179    65    67   ar
   180   220   218   ar
   181    62    64   ar
   182    46    47    1
   183    18    16   ar
   184    16    15    1
   185    47    48    1
   186    48    49    2
   187   221   219   ar
   188   210   209   ar
   189   209   208    1
   190    67    68    1
   191    67    66   ar
   192    64    66   ar
   193   197   198    1
   194   197   196    1
   195     2     1    1
   196     2     3    1
   197   218   217   ar
   198    15    12    1
   199   198   199    2
   200   198   204   am
   201   219   217   ar
   202   208   205    1
   203   204   205    1
   204     3     4    2
   205   217   216    1
   206    14    13    2
   207    11    12    1
   208    12    13    1
   209   205   206    1
   210   216   213    1
   211   206   207    2
   212   212   213    1
   213   213   214    1
   214   214   215    2
