@<TRIPOS>MOLECULE
tmp/1wy7D00.pdb
 201 198 0 0 0
SMALL
GASTEIGER

@<TRIPOS>ATOM
      1  N         98.0220    4.2920   12.6440 N.3    16  PHE16      -0.1241
      2  CA        98.4530    4.8080   11.3410 C.3    16  PHE16       0.1605
      3  C         99.8910    4.4200   11.0170 C.2    16  PHE16       0.2264
      4  O        100.7680    4.5250   11.8710 O.2    16  PHE16      -0.2867
      5  CB        98.3750    6.3390   11.2970 C.3    16  PHE16       0.0534
      6  CG        96.9800    6.8880   11.2420 C.ar   16  PHE16      -0.0203
      7  CD1       96.1740    6.8940   12.3730 C.ar   16  PHE16      -0.0042
      8  CD2       96.4790    7.4250   10.0560 C.ar   16  PHE16      -0.0042
      9  CE1       94.8860    7.4310   12.3240 C.ar   16  PHE16      -0.0003
     10  CE2       95.1940    7.9630    9.9960 C.ar   16  PHE16      -0.0003
     11  CZ        94.3970    7.9670   11.1300 C.ar   16  PHE16      -0.0000
     12  N         96.6480   16.4390    8.5400 N.3    23  LEU23      -0.1231
     13  CA        95.3150   15.8630    8.4110 C.3    23  LEU23       0.1693
     14  C         94.8720   15.3720    9.7970 C.2    23  LEU23       0.2592
     15  O         93.8710   14.6700    9.9330 O.2    23  LEU23      -0.2718
     16  CB        95.3270   14.7010    7.4090 C.3    23  LEU23       0.0284
     17  CG        95.5900   15.0880    5.9520 C.3    23  LEU23       0.0019
     18  CD1       95.5630   13.8440    5.0770 C.3    23  LEU23       0.0001
     19  CD2       94.5410   16.0840    5.4870 C.3    23  LEU23       0.0001
     20  N         95.6390   15.7620   10.8140 N.am   24  GLU24      -0.1966
     21  CA        95.3930   15.3910   12.2070 C.3    24  GLU24       0.1733
     22  C         95.1250   13.8980   12.3400 C.2    24  GLU24       0.2616
     23  O         94.1010   13.4910   12.8760 O.2    24  GLU24      -0.2715
     24  CB        94.2150   16.1960   12.7850 C.3    24  GLU24       0.0429
     25  CG        94.3550   17.7130   12.6380 C.3    24  GLU24       0.1163
     26  CD        93.4660   18.5110   13.6030 C.2    24  GLU24       0.3649
     27  OE1       93.3170   19.7390   13.4050 O.co2  24  GLU24      -0.2457
     28  OE2       92.9260   17.9250   14.5660 O.co2  24  GLU24      -0.2457
     29  N         96.0630   13.0840   11.8640 N.am   25  GLN25      -0.1963
     30  CA        95.9050   11.6380   11.9170 C.3    25  GLN25       0.1733
     31  C         96.4280   10.9650   13.1880 C.2    25  GLN25       0.2616
     32  O         97.6200   10.6650   13.3030 O.2    25  GLN25      -0.2715
     33  CB        96.5720   10.9960   10.6920 C.3    25  GLN25       0.0408
     34  CG        96.2160   11.6620    9.3680 C.3    25  GLN25       0.0908
     35  CD        96.7260   10.8960    8.1570 C.2    25  GLN25       0.2608
     36  OE1       97.8710   10.4280    8.1330 O.2    25  GLN25      -0.2717
     37  NE2       95.8790   10.7760    7.1360 N.am   25  GLN25      -0.0878
     38  N         95.5280   10.7440   14.1430 N.am   26  TYR26      -0.1960
     39  CA        95.8610   10.0530   15.3880 C.3    26  TYR26       0.1771
     40  C         94.6550    9.1680   15.6450 C.2    26  TYR26       0.2619
     41  O         93.5170    9.6070   15.4650 O.2    26  TYR26      -0.2715
     42  CB        96.0710   11.0390   16.5560 C.3    26  TYR26       0.0574
     43  CG        94.8750   11.9000   16.8990 C.ar   26  TYR26      -0.0198
     44  CD1       93.8470   11.4270   17.7230 C.ar   26  TYR26      -0.0009
     45  CD2       94.7490   13.1730   16.3580 C.ar   26  TYR26      -0.0009
     46  CE1       92.7160   12.2120   17.9900 C.ar   26  TYR26       0.0417
     47  CE2       93.6340   13.9590   16.6130 C.ar   26  TYR26       0.0417
     48  CZ        92.6200   13.4800   17.4240 C.ar   26  TYR26       0.1957
     49  OH        91.5140   14.2710   17.6410 O.3    26  TYR26      -0.2866
     50  N         94.8960    7.9190   16.0220 N.am   27  ARG27      -0.1963
     51  CA        93.8040    6.9950   16.2920 C.3    27  ARG27       0.1729
     52  C         92.9840    7.5290   17.4670 C.2    27  ARG27       0.2616
     53  O         93.5370    8.1240   18.3980 O.2    27  ARG27      -0.2715
     54  CB        94.3690    5.6160   16.6440 C.3    27  ARG27       0.0348
     55  CG        95.3070    5.6530   17.8400 C.3    27  ARG27       0.0492
     56  CD        95.7780    4.2680   18.2330 C.3    27  ARG27       0.2205
     57  NE        94.6510    3.3780   18.4750 N.pl3  27  ARG27      -0.0865
     58  CZ        94.7620    2.0710   18.6900 C.cat  27  ARG27       0.5346
     59  NH1       93.6730    1.3400   18.8950 N.pl3  27  ARG27       0.1354
     60  NH2       95.9550    1.4950   18.7010 N.pl3  27  ARG27       0.1354
     61  N         91.6700    7.3310   17.4280 N.am   28  THR28      -0.1951
     62  CA        90.8220    7.7850   18.5240 C.3    28  THR28       0.1897
     63  C         91.1750    6.9520   19.7560 C.2    28  THR28       0.2313
     64  O         91.1040    5.7220   19.7250 O.2    28  THR28      -0.2863
     65  CB        89.3260    7.6120   18.1700 C.3    28  THR28       0.1794
     66  OG1       88.9710    8.5500   17.1450 O.3    28  THR28      -0.2208
     67  CG2       88.4490    7.8480   19.3920 C.3    28  THR28       0.0378
     68  N         81.0070    6.6440    9.5370 N.3    53  ASP53      -0.1239
     69  CA        82.1310    7.0820   10.3540 C.3    53  ASP53       0.1674
     70  C         82.9350    8.0450    9.5090 C.2    53  ASP53       0.2266
     71  O         83.7180    7.6310    8.6460 O.2    53  ASP53      -0.2867
     72  CB        82.9870    5.8890   10.7600 C.3    53  ASP53       0.1410
     73  CG        84.1600    6.2780   11.6430 C.2    53  ASP53       0.3668
     74  OD1       84.8150    5.3610   12.1820 O.co2  53  ASP53      -0.2456
     75  OD2       84.4330    7.4840   11.7970 O.co2  53  ASP53      -0.2456
     76  N         85.8240   10.4630    8.6160 N.3    55  GLY55      -0.1210
     77  CA        87.2170   10.5740    9.0120 C.3    55  GLY55       0.1956
     78  C         87.5630    9.2810    9.7300 C.2    55  GLY55       0.2612
     79  O         88.2180    9.2850   10.7760 O.2    55  GLY55      -0.2717
     80  N         87.1100    8.1650    9.1610 N.am   56  ALA56      -0.1965
     81  CA        87.3200    6.8360    9.7380 C.3    56  ALA56       0.1728
     82  C         88.7590    6.4700   10.1220 C.2    56  ALA56       0.2617
     83  O         88.9790    5.6560   11.0270 O.2    56  ALA56      -0.2715
     84  CB        86.7610    5.7860    8.7950 C.3    56  ALA56       0.0334
     85  N         89.7340    7.0510    9.4310 N.am   57  GLY57      -0.1940
     86  CA        91.1260    6.7610    9.7290 C.3    57  GLY57       0.2014
     87  C         91.4440    5.2750    9.8270 C.2    57  GLY57       0.2640
     88  O         91.3100    4.5240    8.8520 O.2    57  GLY57      -0.2714
     89  N         91.8580    4.8560   11.0170 N.am   58  THR58      -0.1936
     90  CA        92.2230    3.4760   11.3140 C.3    58  THR58       0.2028
     91  C         91.0040    2.5830   11.5640 C.2    58  THR58       0.2643
     92  O         91.1100    1.3530   11.5910 O.2    58  THR58      -0.2714
     93  CB        93.1000    3.4600   12.5690 C.3    58  THR58       0.1808
     94  OG1       94.3640    4.0720   12.2740 O.3    58  THR58      -0.2208
     95  CG2       93.2850    2.0450   13.0730 C.3    58  THR58       0.0379
     96  N         89.8500    3.2060   11.7820 N.am   59  GLY59      -0.1939
     97  CA        88.6370    2.4400   12.0280 C.3    59  GLY59       0.2014
     98  C         88.2540    2.1220   13.4680 C.2    59  GLY59       0.2639
     99  O         87.4280    1.2380   13.7010 O.2    59  GLY59      -0.2714
    100  N         88.8340    2.8290   14.4340 N.am   60  VAL60      -0.1963
    101  CA        88.5190    2.5960   15.8510 C.3    60  VAL60       0.1727
    102  C         87.0130    2.6780   16.1250 C.2    60  VAL60       0.2616
    103  O         86.4190    1.7720   16.7000 O.2    60  VAL60      -0.2715
    104  CB        89.2030    3.6550   16.7710 C.3    60  VAL60       0.0290
    105  CG1       88.7110    3.4770   18.2070 C.3    60  VAL60       0.0023
    106  CG2       90.7260    3.5200   16.7160 C.3    60  VAL60       0.0023
    107  N         86.4120    3.7900   15.7190 N.am   61  LEU61      -0.1977
    108  CA        84.9880    4.0180   15.9280 C.3    61  LEU61       0.1596
    109  C         84.1300    3.0370   15.1310 C.2    61  LEU61       0.2287
    110  O         83.1060    2.5490   15.6260 O.2    61  LEU61      -0.2864
    111  CB        84.6370    5.4630   15.5540 C.3    61  LEU61       0.0297
    112  CG        85.2570    6.5310   16.4680 C.3    61  LEU61       0.0022
    113  CD1       84.8660    7.9300   16.0050 C.3    61  LEU61       0.0001
    114  CD2       84.7890    6.2870   17.9020 C.3    61  LEU61       0.0001
    115  N         84.2750    6.7780    5.8520 N.3    76  VAL76      -0.1231
    116  CA        84.6570    7.8700    4.9670 C.3    76  VAL76       0.1692
    117  C         86.0360    8.3460    5.3940 C.2    76  VAL76       0.2592
    118  O         86.2290    8.8170    6.5140 O.2    76  VAL76      -0.2718
    119  CB        83.6520    9.0420    5.0440 C.3    76  VAL76       0.0266
    120  CG1       84.1610   10.2290    4.2400 C.3    76  VAL76       0.0020
    121  CG2       82.3060    8.5990    4.5000 C.3    76  VAL76       0.0020
    122  N         86.9940    8.2260    4.4830 N.am   77  GLU77      -0.1966
    123  CA        88.3680    8.5890    4.7630 C.3    77  GLU77       0.1733
    124  C         89.0360    9.0500    3.4690 C.2    77  GLU77       0.2616
    125  O         88.9130    8.4010    2.4340 O.2    77  GLU77      -0.2715
    126  CB        89.0590    7.3540    5.3500 C.3    77  GLU77       0.0429
    127  CG        90.5530    7.4390    5.4640 C.3    77  GLU77       0.1163
    128  CD        90.9990    8.6260    6.2640 C.2    77  GLU77       0.3649
    129  OE1       90.5830    8.7610    7.4360 O.co2  77  GLU77      -0.2457
    130  OE2       91.7740    9.4220    5.7120 O.co2  77  GLU77      -0.2457
    131  N         89.7370   10.1720    3.5170 N.am   78  VAL78      -0.1977
    132  CA        90.3790   10.6820    2.3190 C.3    78  VAL78       0.1596
    133  C         91.7750   10.1060    2.0370 C.2    78  VAL78       0.2287
    134  O         92.2730   10.2240    0.9190 O.2    78  VAL78      -0.2864
    135  CB        90.4720   12.2200    2.3610 C.3    78  VAL78       0.0276
    136  CG1       91.5790   12.6490    3.2940 C.3    78  VAL78       0.0022
    137  CG2       90.6860   12.7640    0.9670 C.3    78  VAL78       0.0022
    138  N         87.7350    9.6000   -0.2360 N.3   102  GLY102     -0.1210
    139  CA        87.6100   10.8920   -0.8770 C.3   102  GLY102      0.1956
    140  C         87.3430   11.9080    0.2080 C.2   102  GLY102      0.2612
    141  O         87.2740   11.5450    1.3830 O.2   102  GLY102     -0.2717
    142  N         87.2000   13.1730   -0.1700 N.am  103  ASP103     -0.1959
    143  CA        86.9300   14.2170    0.8050 C.3   103  ASP103      0.1840
    144  C         85.5510   13.9800    1.4200 C.2   103  ASP103      0.2621
    145  O         84.6360   13.4930    0.7490 O.2   103  ASP103     -0.2715
    146  CB        86.9860   15.5880    0.1350 C.3   103  ASP103      0.1450
    147  CG        86.6660   16.7120    1.0940 C.2   103  ASP103      0.3671
    148  OD1       85.4850   16.8410    1.4800 O.co2 103  ASP103     -0.2456
    149  OD2       87.5940   17.4610    1.4720 O.co2 103  ASP103     -0.2456
    150  N         85.4120   14.3170    2.7010 N.am  104  VAL104     -0.1977
    151  CA        84.1560   14.1270    3.4040 C.3   104  VAL104      0.1596
    152  C         83.0060   14.8560    2.7040 C.2   104  VAL104      0.2287
    153  O         81.8790   14.3720    2.6890 O.2   104  VAL104     -0.2864
    154  CB        84.2770   14.6020    4.8880 C.3   104  VAL104      0.0276
    155  CG1       84.4970   16.1000    4.9500 C.3   104  VAL104      0.0022
    156  CG2       83.0360   14.1940    5.6720 C.3   104  VAL104      0.0022
    157  N         85.3580   11.5190   14.7870 N.3   116  ASN116     -0.1226
    158  CA        86.4140   12.1420   15.5780 C.3   116  ASN116      0.1770
    159  C         87.0950   12.9460   14.4890 C.2   116  ASN116      0.2439
    160  O         88.1830   12.6020   14.0230 O.2   116  ASN116     -0.2733
    161  CB        87.4040   11.1270   16.1450 C.3   116  ASN116      0.1168
    162  CG        88.5700   11.7970   16.8730 C.2   116  ASN116      0.2627
    163  OD1       89.4920   11.1270   17.3330 O.2   116  ASN116     -0.2716
    164  ND2       88.5280   13.1270   16.9790 N.am  116  ASN116     -0.0877
    165  N         86.4470   14.0260   14.0490 N.am  117  PRO117     -0.2718
    166  CA        86.9880   14.8790   12.9930 C.3   117  PRO117      0.1520
    167  C         88.1890   15.7050   13.4280 C.2   117  PRO117      0.2440
    168  O         88.4860   15.8120   14.6200 O.2   117  PRO117     -0.2731
    169  CB        85.7990   15.7580   12.6380 C.3   117  PRO117      0.0310
    170  CG        85.1920   16.0050   13.9850 C.3   117  PRO117      0.0237
    171  CD        85.2330   14.6290   14.6380 C.3   117  PRO117      0.0939
    172  N         88.9140   16.2850   12.4610 N.am  118  PRO118     -0.2727
    173  CA        90.0630   17.0950   12.8580 C.3   118  PRO118      0.1402
    174  C         89.5320   18.3150   13.6090 C.2   118  PRO118      0.2269
    175  O         88.4580   18.8210   13.2860 O.2   118  PRO118     -0.2865
    176  CB        90.7110   17.4600   11.5230 C.3   118  PRO118      0.0296
    177  CG        89.5620   17.4750   10.5760 C.3   118  PRO118      0.0237
    178  CD        88.7660   16.2600   10.9960 C.3   118  PRO118      0.0939
    179  N         88.8950   23.1030    9.6030 N.3   126  ALA126     -0.1245
    180  CA        88.8810   21.7810    8.9900 C.3   126  ALA126      0.1562
    181  C         87.7070   20.9340    9.4690 C.2   126  ALA126      0.2260
    182  O         87.2930   20.0010    8.7910 O.2   126  ALA126     -0.2867
    183  CB        90.1930   21.0590    9.2830 C.3   126  ALA126      0.0290
    184  N         83.5890   21.1500    7.4230 N.3   129  PRO129     -0.2102
    185  CA        83.0670   20.2780    6.3640 C.3   129  PRO129      0.1504
    186  C         82.4770   18.9940    6.9410 C.2   129  PRO129      0.2575
    187  O         81.5380   18.4360    6.3820 O.2   129  PRO129     -0.2718
    188  CB        84.2960   20.0230    5.4880 C.3   129  PRO129      0.0282
    189  CG        85.0170   21.3290    5.5640 C.3   129  PRO129      0.0208
    190  CD        84.9250   21.6660    7.0600 C.3   129  PRO129      0.0893
    191  N         83.0190   18.5320    8.0650 N.am  130  PHE130     -0.1977
    192  CA        82.5060   17.3180    8.7010 C.3   130  PHE130      0.1639
    193  C         81.1460   17.5340    9.3630 C.2   130  PHE130      0.2290
    194  O         80.2400   16.7100    9.2180 O.2   130  PHE130     -0.2864
    195  CB        83.4870   16.7980    9.7440 C.3   130  PHE130      0.0560
    196  CG        84.7450   16.2410    9.1640 C.ar  130  PHE130     -0.0200
    197  CD1       85.7050   17.0850    8.6090 C.ar  130  PHE130     -0.0042
    198  CD2       84.9780   14.8680    9.1770 C.ar  130  PHE130     -0.0042
    199  CE1       86.8840   16.5660    8.0750 C.ar  130  PHE130     -0.0003
    200  CE2       86.1470   14.3460    8.6460 C.ar  130  PHE130     -0.0003
    201  CZ        87.1020   15.1950    8.0960 C.ar  130  PHE130     -0.0000
@<TRIPOS>BOND
     1   139   138    1
     2   139   140    1
     3   142   140   am
     4   142   143    1
     5   146   143    1
     6   146   147    1
     7   140   141    2
     8   145   144    2
     9   143   144    1
    10   134   133    2
    11   137   135    1
    12   147   149   ar
    13   147   148   ar
    14   144   150   am
    15   133   132    1
    16   132   135    1
    17   132   131    1
    18   135   136    1
    19   125   124    2
    20   153   152    2
    21   150   151    1
    22   152   151    1
    23   151   154    1
    24   124   131   am
    25   124   123    1
    26   120   119    1
    27   122   123    1
    28   122   117   am
    29   121   119    1
    30   123   126    1
    31   154   155    1
    32   154   156    1
    33   116   119    1
    34   116   117    1
    35   116   115    1
    36    18    17    1
    37   126   127    1
    38   117   118    2
    39   127   128    1
    40    19    17    1
    41   188   189    1
    42   188   185    1
    43   189   190    1
    44   130   128   ar
    45    17    16    1
    46   128   129   ar
    47   185   186    1
    48   185   184    1
    49   187   186    2
    50   186   191   am
    51   190   184    1
    52    37    35   am
    53    16    13    1
    54   191   192    1
    55   199   201   ar
    56   199   197   ar
    57   201   200   ar
    58    36    35    2
    59    35    34    1
    60    13    12    1
    61    13    14    1
    62   197   196   ar
    63    76    77    1
    64   200   198   ar
    65    71    70    2
    66   192   193    1
    67   192   195    1
    68   182   181    2
    69    84    81    1
    70    88    87    2
    71   180   183    1
    72   180   181    1
    73   180   179    1
    74    77    78    1
    75    80    78   am
    76    80    81    1
    77   196   198   ar
    78   196   195    1
    79   194   193    2
    80    34    33    1
    81    85    86    1
    82    85    82   am
    83    70    69    1
    84    68    69    1
    85    86    87    1
    86    78    79    2
    87    81    82    1
    88    14    15    2
    89    14    20   am
    90    87    89   am
    91    10     8   ar
    92    10    11   ar
    93     8     6   ar
    94    82    83    2
    95    69    72    1
    96   177   178    1
    97   177   176    1
    98    33    30    1
    99    72    73    1
   100    20    21    1
   101   178   172    1
   102     3     2    1
   103     3     4    2
   104    89    90    1
   105    11     9   ar
   106     6     5    1
   107     6     7   ar
   108     5     2    1
   109    90    91    1
   110    90    93    1
   111     2     1    1
   112   176   173    1
   113    91    92    2
   114    91    96   am
   115    73    75   ar
   116    73    74   ar
   117    96    97    1
   118    29    30    1
   119    29    22   am
   120    30    31    1
   121    97    98    1
   122    21    22    1
   123    21    24    1
   124    94    93    1
   125     9     7   ar
   126    22    23    2
   127   172   173    1
   128   172   167   am
   129    93    95    1
   130    25    24    1
   131    25    26    1
   132   169   166    1
   133   169   170    1
   134   173   174    1
   135   166   167    1
   136   166   165    1
   137    31    32    2
   138    31    38   am
   139   175   174    2
   140    27    26   ar
   141   167   168    2
   142    98    99    2
   143    98   100   am
   144    26    28   ar
   145   170   171    1
   146   160   159    2
   147   165   159   am
   148   165   171    1
   149    38    39    1
   150   100   101    1
   151   159   158    1
   152   157   158    1
   153   109   110    2
   154   109   108    1
   155    39    40    1
   156    39    42    1
   157    41    40    2
   158   111   108    1
   159   111   112    1
   160   158   161    1
   161    40    50   am
   162   107   108    1
   163   107   102   am
   164   101   102    1
   165   101   104    1
   166   113   112    1
   167    50    51    1
   168   102   103    2
   169   161   162    1
   170    51    54    1
   171    51    52    1
   172    45    47   ar
   173    45    43   ar
   174   112   114    1
   175    42    43    1
   176    47    48   ar
   177    54    55    1
   178   106   104    1
   179   104   105    1
   180   162   164   am
   181   162   163    2
   182    43    44   ar
   183    66    65    1
   184    48    49    1
   185    48    46   ar
   186    61    52   am
   187    61    62    1
   188    52    53    2
   189    44    46   ar
   190    55    56    1
   191    65    62    1
   192    65    67    1
   193    56    57    1
   194    57    58    2
   195    62    63    1
   196    58    60    1
   197    58    59    1
   198    64    63    2
