@<TRIPOS>MOLECULE
tmp/1wydB00.pdb
 87 83 0 0 0
SMALL
GASTEIGER

@<TRIPOS>ATOM
      1  N         40.5900   69.5580   26.5180 N.3   186  GLN186     -0.1245
      2  CA        39.6370   69.9700   27.5740 C.3   186  GLN186      0.1566
      3  C         38.2200   69.4740   27.3170 C.2   186  GLN186      0.2260
      4  O         37.3330   69.6490   28.1430 O.2   186  GLN186     -0.2867
      5  CB        39.6310   71.4860   27.7760 C.3   186  GLN186      0.0367
      6  CG        38.9010   72.2230   26.6680 C.3   186  GLN186      0.0905
      7  CD        38.7350   73.6850   26.9570 C.2   186  GLN186      0.2608
      8  OE1       38.4640   74.0750   28.0900 O.2   186  GLN186     -0.2717
      9  NE2       38.9160   74.5100   25.9370 N.am  186  GLN186     -0.0878
     10  N         41.8880   70.6460   32.5320 N.3   210  ARG210     -0.1245
     11  CA        42.0850   72.0930   32.4260 C.3   210  ARG210      0.1563
     12  C         43.1940   72.5370   33.3390 C.2   210  ARG210      0.2260
     13  O         43.2660   72.0900   34.4920 O.2   210  ARG210     -0.2867
     14  CB        40.7890   72.8400   32.7540 C.3   210  ARG210      0.0307
     15  CG        40.0870   73.2950   31.5310 C.3   210  ARG210      0.0489
     16  CD        40.6010   74.6390   30.9420 C.3   210  ARG210      0.2205
     17  NE        39.5970   75.2170   30.0450 N.pl3 210  ARG210     -0.0865
     18  CZ        39.1160   76.4600   30.0960 C.cat 210  ARG210      0.5346
     19  NH1       39.5510   77.3420   30.9930 N.pl3 210  ARG210      0.1354
     20  NH2       38.1920   76.8290   29.2150 N.pl3 210  ARG210      0.1354
     21  N         34.4720   73.1190   43.0160 N.3   218  PHE218     -0.1227
     22  CA        34.2070   72.4130   41.7730 C.3   218  PHE218      0.1736
     23  C         35.0640   72.8170   40.6190 C.2   218  PHE218      0.2595
     24  O         34.5610   73.1560   39.5510 O.2   218  PHE218     -0.2718
     25  CB        32.7350   72.5280   41.4160 C.3   218  PHE218      0.0547
     26  CG        31.8960   71.6740   42.2630 C.ar  218  PHE218     -0.0202
     27  CD1       31.3780   72.1700   43.4530 C.ar  218  PHE218     -0.0042
     28  CD2       31.6990   70.3330   41.9240 C.ar  218  PHE218     -0.0042
     29  CE1       30.6300   71.3710   44.2750 C.ar  218  PHE218     -0.0003
     30  CE2       30.9530   69.5120   42.7460 C.ar  218  PHE218     -0.0003
     31  CZ        30.4200   70.0370   43.9370 C.ar  218  PHE218     -0.0000
     32  N         36.3750   72.7630   40.8250 N.am  219  HIS219     -0.1961
     33  CA        37.2750   73.0870   39.7610 C.3   219  HIS219      0.1787
     34  C         38.4930   72.1780   39.7420 C.2   219  HIS219      0.2620
     35  O         39.6250   72.6760   39.6740 O.2   219  HIS219     -0.2715
     36  CB        37.7230   74.5220   39.9080 C.3   219  HIS219      0.0785
     37  CG        36.8360   75.4950   39.2190 C.ar  219  HIS219      0.0821
     38  ND1       35.6190   75.8840   39.7400 N.ar  219  HIS219     -0.2267
     39  CD2       36.9840   76.1620   38.0510 C.ar  219  HIS219      0.1154
     40  CE1       35.0420   76.7330   38.9060 C.ar  219  HIS219      0.1986
     41  NE2       35.8570   76.9330   37.8830 N.ar  219  HIS219     -0.2212
     42  N         38.2630   70.8670   39.7650 N.am  220  LEU220     -0.1977
     43  CA        39.3430   69.8830   39.5710 C.3   220  LEU220      0.1596
     44  C         40.0850   70.0670   38.2290 C.2   220  LEU220      0.2287
     45  O         39.5070   70.5830   37.2890 O.2   220  LEU220     -0.2864
     46  CB        38.8210   68.4440   39.7480 C.3   220  LEU220      0.0297
     47  CG        38.0990   68.1090   41.0710 C.3   220  LEU220      0.0022
     48  CD1       37.7360   66.6410   41.1320 C.3   220  LEU220      0.0001
     49  CD2       38.9250   68.5060   42.3200 C.3   220  LEU220      0.0001
     50  N         38.7700   65.8000   35.1220 N.3   223  PHE223     -0.1241
     51  CA        37.3300   65.6830   35.2990 C.3   223  PHE223      0.1605
     52  C         36.7000   64.8600   34.1840 C.2   223  PHE223      0.2264
     53  O         37.1630   64.9040   33.0540 O.2   223  PHE223     -0.2867
     54  CB        36.6680   67.0690   35.4020 C.3   223  PHE223      0.0534
     55  CG        37.0450   68.0380   34.2970 C.ar  223  PHE223     -0.0203
     56  CD1       36.2810   68.1330   33.1210 C.ar  223  PHE223     -0.0042
     57  CD2       38.1340   68.9220   34.4610 C.ar  223  PHE223     -0.0042
     58  CE1       36.6160   69.0510   32.1090 C.ar  223  PHE223     -0.0003
     59  CE2       38.4900   69.8460   33.4370 C.ar  223  PHE223     -0.0003
     60  CZ        37.7340   69.9050   32.2730 C.ar  223  PHE223     -0.0000
     61  N         29.1880   67.8500   33.2730 N.3   400  GLY400     -0.1225
     62  CA        30.2110   67.3700   34.1520 C.3   400  GLY400      0.1811
     63  C         29.6610   66.3140   35.0510 C.2   400  GLY400      0.2280
     64  O         28.7260   66.5830   35.7840 O.2   400  GLY400     -0.2866
     65  N         30.9060   64.9900   37.8880 N.3   402  ALA402     -0.1231
     66  CA        30.9170   65.2230   39.3100 C.3   402  ALA402      0.1694
     67  C         30.0100   66.3930   39.7360 C.2   402  ALA402      0.2591
     68  O         29.5060   66.3910   40.8660 O.2   402  ALA402     -0.2718
     69  CB        32.3100   65.4000   39.8120 C.3   402  ALA402      0.0304
     70  N         29.8160   67.3740   38.8440 N.am  403  ARG403     -0.1980
     71  CA        28.8690   68.4200   39.1170 C.3   403  ARG403      0.1597
     72  C         27.4580   67.8150   39.1550 C.2   403  ARG403      0.2287
     73  O         26.6870   68.1300   40.0510 O.2   403  ARG403     -0.2864
     74  CB        28.9480   69.5110   38.0630 C.3   403  ARG403      0.0334
     75  CG        29.7040   70.6940   38.4980 C.3   403  ARG403      0.0492
     76  CD        30.5210   71.2230   37.3850 C.3   403  ARG403      0.2205
     77  NE        31.4640   72.2480   37.8120 N.pl3 403  ARG403     -0.0865
     78  CZ        31.2020   73.5400   37.7200 C.cat 403  ARG403      0.5346
     79  NH1       30.0140   73.9500   37.2510 N.pl3 403  ARG403      0.1354
     80  NH2       32.0990   74.4240   38.1090 N.pl3 403  ARG403      0.1354
     81  N         33.3070   68.7100   45.3910 N.3   414  VAL414     -0.1245
     82  CA        33.8190   67.8530   44.3260 C.3   414  VAL414      0.1561
     83  C         34.9510   66.9250   44.7870 C.2   414  VAL414      0.2260
     84  O         35.1660   65.8760   44.2030 O.2   414  VAL414     -0.2867
     85  CB        34.2810   68.7040   43.1560 C.3   414  VAL414      0.0252
     86  CG1       35.6940   69.2800   43.4120 C.3   414  VAL414      0.0019
     87  CG2       34.2010   67.9220   41.8840 C.3   414  VAL414      0.0019
@<TRIPOS>BOND
     1     9     7   am
     2     1     2    1
     3     6     7    1
     4     6     5    1
     5     7     8    2
     6     3     2    1
     7     3     4    2
     8     2     5    1
     9    20    18    1
    10    17    18    2
    11    17    16    1
    12    18    19    1
    13    16    15    1
    14    15    14    1
    15    58    60   ar
    16    58    56   ar
    17    60    59   ar
    18    11    10    1
    19    11    14    1
    20    11    12    1
    21    53    52    2
    22    56    55   ar
    23    61    62    1
    24    12    13    2
    25    59    57   ar
    26    62    63    1
    27    52    51    1
    28    55    57   ar
    29    55    54    1
    30    63    64    2
    31    50    51    1
    32    51    54    1
    33    79    78    1
    34    45    44    2
    35    76    77    1
    36    76    75    1
    37    78    77    2
    38    78    80    1
    39    41    39   ar
    40    41    40   ar
    41    65    66    1
    42    39    37   ar
    43    74    75    1
    44    74    71    1
    45    44    43    1
    46    70    71    1
    47    70    67   am
    48    40    38   ar
    49    71    72    1
    50    72    73    2
    51    37    38   ar
    52    37    36    1
    53    66    67    1
    54    66    69    1
    55    24    23    2
    56    43    46    1
    57    43    42    1
    58    35    34    2
    59    67    68    2
    60    34    33    1
    61    34    42   am
    62    46    47    1
    63    33    36    1
    64    33    32    1
    65    23    32   am
    66    23    22    1
    67    47    48    1
    68    47    49    1
    69    25    22    1
    70    25    26    1
    71    22    21    1
    72    87    85    1
    73    28    26   ar
    74    28    30   ar
    75    26    27   ar
    76    30    31   ar
    77    85    86    1
    78    85    82    1
    79    27    29   ar
    80    31    29   ar
    81    84    83    2
    82    82    83    1
    83    82    81    1
