@<TRIPOS>MOLECULE
tmp/1wyuH00.pdb
 134 125 0 0 0
SMALL
GASTEIGER

@<TRIPOS>ATOM
      1  N        153.4570   13.1940   80.4330 N.3    72  SER72      -0.1202
      2  CA       154.1870   12.2500   81.2670 C.3    72  SER72       0.2020
      3  C        153.2870   11.5020   82.2580 C.2    72  SER72       0.2619
      4  O        153.7780   10.7230   83.0750 O.2    72  SER72      -0.2717
      5  CB       155.2930   12.9860   82.0310 C.3    72  SER72       0.2103
      6  OG       156.5050   12.2600   82.0080 O.3    72  SER72      -0.2182
      7  N        151.9750   11.7150   82.1790 N.am   73  CYS73      -0.1969
      8  CA       151.0580   11.0570   83.1090 C.3    73  CYS73       0.1712
      9  C        150.0090   10.1600   82.4700 C.2    73  CYS73       0.2296
     10  O        149.4340    9.3050   83.1450 O.2    73  CYS73      -0.2864
     11  CB       150.3560   12.1060   83.9700 C.3    73  CYS73       0.0983
     12  SG       151.4880   13.1150   84.9360 S.3    73  CYS73      -0.0798
     13  N        155.4980    0.3810   91.2680 N.3   130  ALA130     -0.1231
     14  CA       155.3170    1.5610   90.4300 C.3   130  ALA130      0.1694
     15  C        156.4940    1.6870   89.4710 C.2   130  ALA130      0.2593
     16  O        157.4510    0.9240   89.5600 O.2   130  ALA130     -0.2718
     17  CB       155.2170    2.8160   91.3080 C.3   130  ALA130      0.0304
     18  N        156.4160    2.6520   88.5600 N.am  131  GLY131     -0.1942
     19  CA       157.4850    2.8490   87.5980 C.3   131  GLY131      0.2014
     20  C        158.8460    3.0280   88.2480 C.2   131  GLY131      0.2638
     21  O        159.7950    2.3130   87.9230 O.2   131  GLY131     -0.2714
     22  N        158.9410    3.9800   89.1730 N.am  132  ALA132     -0.1977
     23  CA       160.2000    4.2480   89.8600 C.3   132  ALA132      0.1597
     24  C        160.6980    2.9920   90.5580 C.2   132  ALA132      0.2287
     25  O        161.9040    2.7500   90.6190 O.2   132  ALA132     -0.2864
     26  CB       160.0280    5.3760   90.8720 C.3   132  ALA132      0.0319
     27  N        162.2210    0.9600   88.0060 N.3   135  GLU135     -0.1245
     28  CA       163.5320    1.4890   87.6350 C.3   135  GLU135      0.1567
     29  C        164.6030    0.9440   88.5690 C.2   135  GLU135      0.2260
     30  O        165.6590    0.5040   88.1200 O.2   135  GLU135     -0.2867
     31  CB       163.5420    3.0160   87.7030 C.3   135  GLU135      0.0388
     32  CG       162.7270    3.7020   86.6250 C.3   135  GLU135      0.1160
     33  CD       162.7010    5.2010   86.8110 C.2   135  GLU135      0.3649
     34  OE1      163.7840    5.7840   87.0330 O.co2 135  GLU135     -0.2457
     35  OE2      161.6020    5.7980   86.7360 O.co2 135  GLU135     -0.2457
     36  N        163.2430   12.1380   83.4080 N.3   165  HIS165     -0.1241
     37  CA       162.3990   12.3790   84.5710 C.3   165  HIS165      0.1621
     38  C        163.3070   12.2870   85.7920 C.2   165  HIS165      0.2264
     39  O        164.2570   11.5030   85.8060 O.2   165  HIS165     -0.2867
     40  CB       161.2940   11.3220   84.6420 C.3   165  HIS165      0.0745
     41  CG       160.3160   11.5330   85.7570 C.ar  165  HIS165      0.0817
     42  ND1      160.4210   10.8900   86.9720 N.ar  165  HIS165     -0.2268
     43  CD2      159.2050   12.3030   85.8350 C.ar  165  HIS165      0.1154
     44  CE1      159.4150   11.2530   87.7490 C.ar  165  HIS165      0.1986
     45  NE2      158.6630   12.1110   87.0830 N.ar  165  HIS165     -0.2212
     46  N        163.1290   10.8390   88.5300 N.3   167  SER167     -0.1217
     47  CA       163.2810    9.5280   89.1520 C.3   167  SER167      0.1889
     48  C        164.4730    8.7400   88.6060 C.2   167  SER167      0.2288
     49  O        165.0280    7.9060   89.3110 O.2   167  SER167     -0.2866
     50  CB       162.0050    8.7060   88.9740 C.3   167  SER167      0.2089
     51  OG       161.7970    8.3980   87.6130 O.3   167  SER167     -0.2183
     52  N        163.6510    7.1330   77.5240 N.3   209  THR209     -0.1218
     53  CA       162.2310    6.9370   77.3000 C.3   209  THR209      0.1862
     54  C        162.1940    7.0490   75.7930 C.2   209  THR209      0.2287
     55  O        163.0850    7.6560   75.1990 O.2   209  THR209     -0.2866
     56  CB       161.3600    8.0730   77.8710 C.3   209  THR209      0.1770
     57  OG1      161.8900    9.3370   77.4510 O.3   209  THR209     -0.2211
     58  CG2      161.2950    7.9980   79.3830 C.3   209  THR209      0.0375
     59  N        160.8850   12.5530   76.4840 N.3   213  THR213     -0.1218
     60  CA       160.0460   13.4700   77.2480 C.3   213  THR213      0.1862
     61  C        159.6240   14.7350   76.4970 C.2   213  THR213      0.2287
     62  O        158.8960   15.5680   77.0370 O.2   213  THR213     -0.2866
     63  CB       160.7400   13.8720   78.5510 C.3   213  THR213      0.1770
     64  OG1      159.8360   14.6360   79.3560 O.3   213  THR213     -0.2211
     65  CG2      161.9540   14.6990   78.2560 C.3   213  THR213      0.0375
     66  N        162.7330    3.4020   80.0850 N.3   238  ASP238     -0.1239
     67  CA       161.7870    4.0110   81.0070 C.3   238  ASP238      0.1674
     68  C        160.5140    3.9300   80.1690 C.2   238  ASP238      0.2266
     69  O        160.3580    4.6810   79.2060 O.2   238  ASP238     -0.2867
     70  CB       162.1610    5.4710   81.2630 C.3   238  ASP238      0.1410
     71  CG       161.1560    6.1850   82.1440 C.2   238  ASP238      0.3668
     72  OD1      159.9390    5.9370   81.9830 O.co2 238  ASP238     -0.2456
     73  OD2      161.5820    7.0060   82.9840 O.co2 238  ASP238     -0.2456
     74  N        157.3890    4.8690   80.5750 N.3   240  ALA240     -0.1231
     75  CA       156.2730    5.7770   80.8130 C.3   240  ALA240      0.1694
     76  C        155.5950    6.3150   79.5490 C.2   240  ALA240      0.2592
     77  O        154.4280    6.7080   79.5930 O.2   240  ALA240     -0.2718
     78  CB       156.7310    6.9330   81.6830 C.3   240  ALA240      0.0304
     79  N        156.3100    6.3340   78.4260 N.am  241  ASN241     -0.1974
     80  CA       155.7320    6.8480   77.1880 C.3   241  ASN241      0.1688
     81  C        155.3180    5.7610   76.2060 C.2   241  ASN241      0.2292
     82  O        155.1890    6.0110   75.0080 O.2   241  ASN241     -0.2864
     83  CB       156.7110    7.8120   76.5070 C.3   241  ASN241      0.1181
     84  CG       157.0040    9.0280   77.3560 C.2   241  ASN241      0.2629
     85  OD1      156.1740    9.4400   78.1670 O.2   241  ASN241     -0.2716
     86  ND2      158.1780    9.6200   77.1670 N.am  241  ASN241     -0.0877
     87  N        160.5940   -1.2250   82.1170 N.3   260  HIS260     -0.1241
     88  CA       159.6160   -1.1350   83.1860 C.3   260  HIS260      0.1621
     89  C        158.4080   -0.4870   82.5250 C.2   260  HIS260      0.2264
     90  O        158.5630    0.3470   81.6370 O.2   260  HIS260     -0.2867
     91  CB       160.1190   -0.2810   84.3590 C.3   260  HIS260      0.0745
     92  CG       159.7440    1.1670   84.2790 C.ar  260  HIS260      0.0817
     93  ND1      160.6570    2.1590   83.9900 N.ar  260  HIS260     -0.2268
     94  CD2      158.5640    1.7960   84.4970 C.ar  260  HIS260      0.1154
     95  CE1      160.0560    3.3340   84.0360 C.ar  260  HIS260      0.1986
     96  NE2      158.7860    3.1420   84.3410 N.ar  260  HIS260     -0.2212
     97  N        154.3270    1.2720   83.1340 N.3   262  ASN262     -0.1240
     98  CA       153.5000    1.9550   84.1190 C.3   262  ASN262      0.1653
     99  C        152.0540    1.5960   83.8080 C.2   262  ASN262      0.2266
    100  O        151.4410    2.1800   82.9170 O.2   262  ASN262     -0.2867
    101  CB       153.6810    3.4760   84.0350 C.3   262  ASN262      0.1155
    102  CG       155.1100    3.9170   84.2970 C.2   262  ASN262      0.2627
    103  OD1      156.0040    3.7090   83.4710 O.2   262  ASN262     -0.2716
    104  ND2      155.3340    4.5310   85.4520 N.am  262  ASN262     -0.0877
    105  N        149.4820    2.1180   85.6620 N.3   264  HIS264     -0.1226
    106  CA       148.6300    3.2290   86.0770 C.3   264  HIS264      0.1752
    107  C        148.7150    4.4280   85.1330 C.2   264  HIS264      0.2595
    108  O        148.1220    5.4780   85.3870 O.2   264  HIS264     -0.2718
    109  CB       148.9830    3.6580   87.5040 C.3   264  HIS264      0.0759
    110  CG       150.4540    3.8070   87.7410 C.ar  264  HIS264      0.0818
    111  ND1      151.3380    2.7580   87.6080 N.ar  264  HIS264     -0.2268
    112  CD2      151.1950    4.8820   88.0960 C.ar  264  HIS264      0.1154
    113  CE1      152.5620    3.1820   87.8710 C.ar  264  HIS264      0.1986
    114  NE2      152.5020    4.4670   88.1690 N.ar  264  HIS264     -0.2212
    115  N        149.4750    4.2890   84.0540 N.am  265  LYS265     -0.1980
    116  CA       149.5510    5.3660   83.0780 C.3   265  LYS265      0.1596
    117  C        149.0090    4.8140   81.7610 C.2   265  LYS265      0.2287
    118  O        147.8790    5.1090   81.3680 O.2   265  LYS265     -0.2864
    119  CB       150.9930    5.8650   82.9180 C.3   265  LYS265      0.0298
    120  CG       151.4980    6.6800   84.1160 C.3   265  LYS265      0.0038
    121  CD       152.9500    7.1190   83.9360 C.3   265  LYS265      0.0206
    122  CE       153.4840    7.9660   85.1090 C.3   265  LYS265      0.1093
    123  NZ       154.7610    8.0440   84.9430 N.3   265  LYS265     -0.1314
    124  N        158.4730   21.1350   82.9410 N.3   405  PHE405     -0.1241
    125  CA       159.1110   19.8450   82.7210 C.3   405  PHE405      0.1605
    126  C        158.7810   19.4260   81.2950 C.2   405  PHE405      0.2264
    127  O        157.6580   19.6180   80.8380 O.2   405  PHE405     -0.2867
    128  CB       158.6070   18.7660   83.6910 C.3   405  PHE405      0.0534
    129  CG       159.3630   17.4700   83.5740 C.ar  405  PHE405     -0.0203
    130  CD1      160.5870   17.3030   84.2180 C.ar  405  PHE405     -0.0042
    131  CD2      158.9140   16.4620   82.7190 C.ar  405  PHE405     -0.0042
    132  CE1      161.3610   16.1590   84.0090 C.ar  405  PHE405     -0.0003
    133  CE2      159.6790   15.3140   82.5000 C.ar  405  PHE405     -0.0003
    134  CZ       160.9070   15.1650   83.1460 C.ar  405  PHE405     -0.0000
@<TRIPOS>BOND
     1    82    81    2
     2    55    54    2
     3    54    53    1
     4    81    80    1
     5    59    60    1
     6    61    62    2
     7    61    60    1
     8    83    80    1
     9    83    84    1
    10    86    84   am
    11    80    79    1
    12    60    63    1
    13    53    52    1
    14    53    56    1
    15    84    85    2
    16    57    56    1
    17    56    58    1
    18    65    63    1
    19    79    76   am
    20    63    64    1
    21    69    68    2
    22    76    77    2
    23    76    75    1
    24    66    67    1
    25    68    67    1
    26     1     2    1
    27    74    75    1
    28    75    78    1
    29   127   126    2
    30    67    70    1
    31    70    71    1
    32     2     5    1
    33     2     3    1
    34   126   125    1
    35   118   117    2
    36    90    89    2
    37   117   116    1
    38    72    71   ar
    39     6     5    1
    40    87    88    1
    41    71    73   ar
    42     7     3   am
    43     7     8    1
    44     3     4    2
    45     9     8    1
    46     9    10    2
    47   133   131   ar
    48   133   134   ar
    49    89    88    1
    50   131   129   ar
    51   125   124    1
    52   125   128    1
    53   100    99    2
    54   119   116    1
    55   119   120    1
    56   116   115    1
    57     8    11    1
    58    97    98    1
    59   134   132   ar
    60    88    91    1
    61    36    37    1
    62   103   102    2
    63   129   128    1
    64   129   130   ar
    65    99    98    1
    66   121   120    1
    67   121   122    1
    68    11    12    1
    69    93    95   ar
    70    93    92   ar
    71   132   130   ar
    72   101    98    1
    73   101   102    1
    74    95    96   ar
    75   115   107   am
    76    92    91    1
    77    92    94   ar
    78   102   104   am
    79    96    94   ar
    80    37    40    1
    81    37    38    1
    82    40    41    1
    83   123   122    1
    84   107   108    2
    85   107   106    1
    86   105   106    1
    87    41    43   ar
    88    41    42   ar
    89    38    39    2
    90    43    45   ar
    91   106   109    1
    92    32    33    1
    93    32    31    1
    94    35    33   ar
    95    33    34   ar
    96    42    44   ar
    97    45    44   ar
    98   109   110    1
    99    19    20    1
   100    19    18    1
   101   111   110   ar
   102   111   113   ar
   103    51    50    1
   104    28    31    1
   105    28    27    1
   106    28    29    1
   107   110   112   ar
   108   113   114   ar
   109    21    20    2
   110   112   114   ar
   111    30    29    2
   112    20    22   am
   113    46    47    1
   114    18    15   am
   115    48    47    1
   116    48    49    2
   117    50    47    1
   118    22    23    1
   119    15    16    2
   120    15    14    1
   121    23    24    1
   122    23    26    1
   123    14    13    1
   124    14    17    1
   125    24    25    2
