@<TRIPOS>MOLECULE
tmp/1wyvE00.pdb
 97 94 0 0 0
SMALL
GASTEIGER

@<TRIPOS>ATOM
      1  N        115.5820   13.5930   97.9230 N.3    95  TYR95      -0.1227
      2  CA       114.1380   13.4110   98.0220 C.3    95  TYR95       0.1736
      3  C        113.5250   14.0560   96.7730 C.2    95  TYR95       0.2596
      4  O        114.2540   14.6070   95.9360 O.2    95  TYR95      -0.2718
      5  CB       113.6100   14.1070   99.2790 C.3    95  TYR95       0.0548
      6  CG       112.1140   13.9820   99.4720 C.ar   95  TYR95      -0.0200
      7  CD1      111.5160   12.7330   99.6500 C.ar   95  TYR95      -0.0009
      8  CD2      111.2920   15.1110   99.4550 C.ar   95  TYR95      -0.0009
      9  CE1      110.1380   12.6080   99.8050 C.ar   95  TYR95       0.0417
     10  CE2      109.9080   14.9980   99.6100 C.ar   95  TYR95       0.0417
     11  CZ       109.3400   13.7430   99.7830 C.ar   95  TYR95       0.1957
     12  OH       107.9770   13.6210   99.9240 O.3    95  TYR95      -0.2866
     13  N        112.2040   13.9810   96.6340 N.am   96  THR96      -0.1953
     14  CA       111.5380   14.6080   95.4970 C.3    96  THR96       0.1897
     15  C        112.0320   16.0590   95.4800 C.2    96  THR96       0.2313
     16  O        111.9360   16.7710   96.4710 O.2    96  THR96      -0.2863
     17  CB       110.0150   14.5560   95.6580 C.3    96  THR96       0.1794
     18  OG1      109.6180   13.2080   95.9230 O.3    96  THR96      -0.2208
     19  CG2      109.3260   15.0180   94.3880 C.3    96  THR96       0.0378
     20  N        111.7890   19.4260   95.4640 N.3    98  TYR98      -0.1241
     21  CA       110.8650   20.5370   95.6380 C.3    98  TYR98       0.1605
     22  C        111.5660   21.8980   95.7360 C.2    98  TYR98       0.2264
     23  O        110.9610   22.9300   95.4460 O.2    98  TYR98      -0.2867
     24  CB       109.9650   20.2850   96.8480 C.3    98  TYR98       0.0534
     25  CG       108.8810   19.2700   96.5530 C.ar   98  TYR98      -0.0201
     26  CD1      108.0200   19.4450   95.4620 C.ar   98  TYR98      -0.0009
     27  CD2      108.7140   18.1360   97.3480 C.ar   98  TYR98      -0.0009
     28  CE1      107.0190   18.5130   95.1680 C.ar   98  TYR98       0.0417
     29  CE2      107.7120   17.1930   97.0610 C.ar   98  TYR98       0.0417
     30  CZ       106.8700   17.3910   95.9690 C.ar   98  TYR98       0.1957
     31  OH       105.8820   16.4740   95.6730 O.3    98  TYR98      -0.2866
     32  N        105.2340    3.2610   89.0940 N.3   131  TYR131     -0.1241
     33  CA       105.8000    2.1770   89.9170 C.3   131  TYR131      0.1605
     34  C        106.3880    1.0240   89.1110 C.2   131  TYR131      0.2264
     35  O        107.5050    0.5690   89.3690 O.2   131  TYR131     -0.2867
     36  CB       104.7390    1.5720   90.8430 C.3   131  TYR131      0.0534
     37  CG       104.0050    2.5360   91.7480 C.ar  131  TYR131     -0.0201
     38  CD1      104.6930    3.5190   92.4730 C.ar  131  TYR131     -0.0009
     39  CD2      102.6310    2.4120   91.9480 C.ar  131  TYR131     -0.0009
     40  CE1      104.0270    4.3480   93.3820 C.ar  131  TYR131      0.0417
     41  CE2      101.9520    3.2370   92.8590 C.ar  131  TYR131      0.0417
     42  CZ       102.6600    4.1950   93.5720 C.ar  131  TYR131      0.1957
     43  OH       102.0020    4.9740   94.4970 O.3   131  TYR131     -0.2866
     44  N        104.5020   13.1240   88.4550 N.3   285  ARG285     -0.1245
     45  CA       105.3480   14.2990   88.3060 C.3   285  ARG285      0.1563
     46  C        105.7730   14.5830   86.8650 C.2   285  ARG285      0.2260
     47  O        105.9380   13.6730   86.0520 O.2   285  ARG285     -0.2867
     48  CB       106.5830   14.1740   89.2030 C.3   285  ARG285      0.0307
     49  CG       106.2890   14.4790   90.6690 C.3   285  ARG285      0.0489
     50  CD       107.5540   14.6150   91.5010 C.3   285  ARG285      0.2205
     51  NE       108.0780   13.3320   91.9570 N.pl3 285  ARG285     -0.0865
     52  CZ       107.5020   12.5790   92.8880 C.cat 285  ARG285      0.5346
     53  NH1      106.3750   12.9850   93.4640 N.pl3 285  ARG285      0.1354
     54  NH2      108.0560   11.4220   93.2440 N.pl3 285  ARG285      0.1354
     55  N         98.3470   15.0810   93.9410 N.3   308  GLN308     -0.1231
     56  CA        97.6950   15.1120   95.2470 C.3   308  GLN308      0.1698
     57  C         97.8540   16.3210   96.1800 C.2   308  GLN308      0.2592
     58  O         96.8970   16.6880   96.8670 O.2   308  GLN308     -0.2718
     59  CB        98.0250   13.8170   96.0160 C.3   308  GLN308      0.0381
     60  CG        99.4990   13.5580   96.3160 C.3   308  GLN308      0.0905
     61  CD       100.0510   14.4730   97.3950 C.2   308  GLN308      0.2608
     62  OE1       99.3240   14.8930   98.2920 O.2   308  GLN308     -0.2717
     63  NE2      101.3490   14.7750   97.3210 N.am  308  GLN308     -0.0878
     64  N         99.0300   16.9410   96.2270 N.am  309  TYR309     -0.1976
     65  CA        99.2010   18.0850   97.1240 C.3   309  TYR309      0.1639
     66  C         98.2130   19.1980   96.8190 C.2   309  TYR309      0.2290
     67  O         97.5040   19.6710   97.7020 O.2   309  TYR309     -0.2864
     68  CB       100.6100   18.6580   97.0450 C.3   309  TYR309      0.0560
     69  CG       100.7570   19.9560   97.8140 C.ar  309  TYR309     -0.0198
     70  CD1      100.7490   19.9670   99.2110 C.ar  309  TYR309     -0.0009
     71  CD2      100.8950   21.1760   97.1460 C.ar  309  TYR309     -0.0009
     72  CE1      100.8790   21.1550   99.9240 C.ar  309  TYR309      0.0417
     73  CE2      101.0250   22.3710   97.8500 C.ar  309  TYR309      0.0417
     74  CZ       101.0180   22.3520   99.2390 C.ar  309  TYR309      0.1957
     75  OH       101.1590   23.5260   99.9410 O.3   309  TYR309     -0.2866
     76  N         96.7000    9.3660   93.1500 N.3   318  ASN318     -0.1240
     77  CA        97.2110    9.5870   94.4980 C.3   318  ASN318      0.1653
     78  C         98.7380    9.4250   94.5380 C.2   318  ASN318      0.2266
     79  O         99.3620    9.6500   95.5680 O.2   318  ASN318     -0.2867
     80  CB        96.5660    8.6100   95.4920 C.3   318  ASN318      0.1155
     81  CG        97.0470    7.1830   95.3070 C.2   318  ASN318      0.2627
     82  OD1       97.8460    6.8940   94.4170 O.2   318  ASN318     -0.2716
     83  ND2       96.5610    6.2830   96.1450 N.am  318  ASN318     -0.0877
     84  N        102.5040    9.6780   94.8280 N.3   320  THR320     -0.1203
     85  CA       103.3920   10.6300   95.4720 C.3   320  THR320      0.1994
     86  C        104.7920   10.1020   95.1720 C.2   320  THR320      0.2618
     87  O        105.4440   10.5490   94.2260 O.2   320  THR320     -0.2717
     88  CB       103.1450   10.6440   96.9960 C.3   320  THR320      0.1784
     89  OG1      101.7410   10.8130   97.2470 O.3   320  THR320     -0.2211
     90  CG2      103.9200   11.7750   97.6570 C.3   320  THR320      0.0376
     91  N        105.2570    9.1470   95.9700 N.am  321  THR321     -0.1952
     92  CA       106.5590    8.5500   95.7070 C.3   321  THR321      0.1897
     93  C        106.4040    7.7830   94.3980 C.2   321  THR321      0.2313
     94  O        105.3850    7.1180   94.1830 O.2   321  THR321     -0.2863
     95  CB       106.9700    7.5540   96.8120 C.3   321  THR321      0.1794
     96  OG1      107.3810    8.2780   97.9750 O.3   321  THR321     -0.2208
     97  CG2      108.1230    6.6670   96.3380 C.3   321  THR321      0.0378
@<TRIPOS>BOND
     1    47    46    2
     2    46    45    1
     3    45    44    1
     4    45    48    1
     5    32    33    1
     6    34    35    2
     7    34    33    1
     8    48    49    1
     9    33    36    1
    10    49    50    1
    11    36    37    1
    12    50    51    1
    13    37    39   ar
    14    37    38   ar
    15    39    41   ar
    16    51    52    2
    17    38    40   ar
    18    41    42   ar
    19    52    54    1
    20    52    53    1
    21    76    77    1
    22    40    42   ar
    23    42    43    1
    24    55    56    1
    25    94    93    2
    26    87    86    2
    27    19    17    1
    28    93    92    1
    29    82    81    2
    30    77    78    1
    31    77    80    1
    32    78    79    2
    33    84    85    1
    34    28    26   ar
    35    28    30   ar
    36    86    85    1
    37    86    91   am
    38    56    59    1
    39    56    57    1
    40    81    80    1
    41    81    83   am
    42    23    22    2
    43    26    25   ar
    44    20    21    1
    45    85    88    1
    46    15    14    1
    47    15    16    2
    48    14    17    1
    49    14    13    1
    50    21    22    1
    51    21    24    1
    52    17    18    1
    53    31    30    1
    54    92    91    1
    55    92    95    1
    56     4     3    2
    57    30    29   ar
    58    59    60    1
    59    57    64   am
    60    57    58    2
    61    64    65    1
    62    60    61    1
    63    97    95    1
    64    25    24    1
    65    25    27   ar
    66    13     3   am
    67     3     2    1
    68    95    96    1
    69    66    65    1
    70    66    67    2
    71    88    89    1
    72    88    90    1
    73    68    65    1
    74    68    69    1
    75    29    27   ar
    76    71    69   ar
    77    71    73   ar
    78    63    61   am
    79    61    62    2
    80    69    70   ar
    81    73    74   ar
    82     1     2    1
    83     2     5    1
    84    70    72   ar
    85    74    72   ar
    86    74    75    1
    87     5     6    1
    88     8     6   ar
    89     8    10   ar
    90     6     7   ar
    91    10    11   ar
    92     7     9   ar
    93    11     9   ar
    94    11    12    1
