@<TRIPOS>MOLECULE
tmp/1wyvB00.pdb
 123 114 0 0 0
SMALL
GASTEIGER

@<TRIPOS>ATOM
      1  N         73.2750   28.3080   58.4690 N.3    72  SER72      -0.1202
      2  CA        72.4820   29.1330   57.5630 C.3    72  SER72       0.2020
      3  C         73.2990   30.1470   56.7610 C.2    72  SER72       0.2619
      4  O         72.7370   30.9350   56.0030 O.2    72  SER72      -0.2717
      5  CB        71.3860   29.8730   58.3340 C.3    72  SER72       0.2103
      6  OG        70.1040   29.3720   57.9930 O.3    72  SER72      -0.2182
      7  N         74.6170   30.1160   56.9040 N.am   73  CYS73      -0.1969
      8  CA        75.4590   31.0690   56.1860 C.3    73  CYS73       0.1712
      9  C         76.4550   30.4320   55.2190 C.2    73  CYS73       0.2296
     10  O         76.9360   31.0970   54.3100 O.2    73  CYS73      -0.2864
     11  CB        76.2090   31.9550   57.1860 C.3    73  CYS73       0.0983
     12  SG        75.1250   32.7860   58.3800 S.3    73  CYS73      -0.0798
     13  N         69.9650   39.1620   46.1530 N.3   130  ALA130     -0.1231
     14  CA        70.2640   38.3670   47.3360 C.3   130  ALA130      0.1694
     15  C         69.1960   37.3060   47.5200 C.2   130  ALA130      0.2593
     16  O         68.2000   37.2870   46.7950 O.2   130  ALA130     -0.2718
     17  CB        70.3140   39.2710   48.5700 C.3   130  ALA130      0.0304
     18  N         69.4110   36.4290   48.4950 N.am  131  GLY131     -0.1942
     19  CA        68.4540   35.3720   48.7690 C.3   131  GLY131      0.2014
     20  C         67.0700   35.9220   49.0620 C.2   131  GLY131      0.2638
     21  O         66.0920   35.4980   48.4450 O.2   131  GLY131     -0.2714
     22  N         66.9890   36.8700   49.9960 N.am  132  ALA132     -0.1977
     23  CA        65.7160   37.4790   50.3720 C.3   132  ALA132      0.1597
     24  C         65.0840   38.1910   49.1810 C.2   132  ALA132      0.2287
     25  O         63.8580   38.3120   49.1060 O.2   132  ALA132     -0.2864
     26  CB        65.9110   38.4660   51.5270 C.3   132  ALA132      0.0319
     27  N         63.4660   35.4670   47.1790 N.3   135  GLU135     -0.1245
     28  CA        62.1970   35.0540   47.7890 C.3   135  GLU135      0.1567
     29  C         61.0530   35.9500   47.3020 C.2   135  GLU135      0.2260
     30  O         59.9880   35.4630   46.8910 O.2   135  GLU135     -0.2867
     31  CB        62.2750   35.1540   49.3090 C.3   135  GLU135      0.0388
     32  CG        63.1460   34.1130   49.9780 C.3   135  GLU135      0.1160
     33  CD        63.3740   34.4310   51.4450 C.2   135  GLU135      0.3649
     34  OE1       62.3860   34.6000   52.1860 O.co2 135  GLU135     -0.2457
     35  OE2       64.5450   34.5120   51.8600 O.co2 135  GLU135     -0.2457
     36  N         63.4780   30.7480   58.4190 N.3   165  HIS165     -0.1241
     37  CA        64.2510   31.9600   58.5980 C.3   165  HIS165      0.1621
     38  C         63.2450   33.1210   58.5630 C.2   165  HIS165      0.2264
     39  O         62.2590   33.0790   57.8240 O.2   165  HIS165     -0.2867
     40  CB        65.2750   32.0690   57.4670 C.3   165  HIS165      0.0745
     41  CG        66.0960   33.3200   57.4990 C.ar  165  HIS165      0.0817
     42  ND1       65.7950   34.4270   56.7310 N.ar  165  HIS165     -0.2268
     43  CD2       67.2100   33.6400   58.2000 C.ar  165  HIS165      0.1154
     44  CE1       66.6890   35.3740   56.9570 C.ar  165  HIS165      0.1986
     45  NE2       67.5570   34.9220   57.8450 N.ar  165  HIS165     -0.2212
     46  N         63.1750   35.8980   57.1760 N.3   167  SER167     -0.1217
     47  CA        62.9300   36.5710   55.9070 C.3   167  SER167      0.1889
     48  C         61.7390   35.9510   55.1820 C.2   167  SER167      0.2288
     49  O         61.0400   36.6300   54.4290 O.2   167  SER167     -0.2866
     50  CB        64.1740   36.5070   55.0140 C.3   167  SER167      0.2089
     51  OG        64.4720   35.1720   54.6630 O.3   167  SER167     -0.2183
     52  N         62.8780   24.8890   53.3080 N.3   209  THR209     -0.1218
     53  CA        64.2910   24.7050   53.0290 C.3   209  THR209      0.1862
     54  C         64.3810   23.1880   53.1460 C.2   209  THR209      0.2287
     55  O         63.5970   22.5820   53.8780 O.2   209  THR209     -0.2866
     56  CB        65.2260   25.3220   54.1030 C.3   209  THR209      0.1770
     57  OG1       64.8200   24.8870   55.4080 O.3   209  THR209     -0.2211
     58  CG2       65.2110   26.8370   54.0330 C.3   209  THR209      0.0375
     59  N         66.1500   23.9490   58.5690 N.3   213  THR213     -0.1218
     60  CA        67.1140   24.6900   59.3790 C.3   213  THR213      0.1862
     61  C         67.6280   23.9780   60.6210 C.2   213  THR213      0.2287
     62  O         68.3850   24.5570   61.4040 O.2   213  THR213     -0.2866
     63  CB        66.5690   26.0660   59.7750 C.3   213  THR213      0.1770
     64  OG1       65.3350   25.9070   60.4820 O.3   213  THR213     -0.2211
     65  CG2       66.3370   26.9170   58.5230 C.3   213  THR213      0.0375
     66  N         63.5620   27.4180   49.5320 N.3   238  ASP238     -0.1239
     67  CA        64.5250   28.3910   50.0320 C.3   238  ASP238      0.1674
     68  C         65.8610   27.6410   49.9130 C.2   238  ASP238      0.2266
     69  O         66.0880   26.6440   50.6020 O.2   238  ASP238     -0.2867
     70  CB        64.2200   28.7210   51.4900 C.3   238  ASP238      0.1410
     71  CG        65.1430   29.7760   52.0600 C.2   238  ASP238      0.3668
     72  OD1       66.3720   29.6480   51.8970 O.co2 238  ASP238     -0.2456
     73  OD2       64.6440   30.7320   52.6850 O.co2 238  ASP238     -0.2456
     74  N         68.8000   28.2040   50.9780 N.3   240  ALA240     -0.1231
     75  CA        69.8440   28.4570   51.9540 C.3   240  ALA240      0.1694
     76  C         70.6720   27.2010   52.2570 C.2   240  ALA240      0.2592
     77  O         71.8770   27.2920   52.4870 O.2   240  ALA240     -0.2718
     78  CB        69.2400   28.9990   53.2420 C.3   240  ALA240      0.0304
     79  N         70.0350   26.0350   52.2450 N.am  241  ASN241     -0.1974
     80  CA        70.7480   24.8060   52.5680 C.3   241  ASN241      0.1688
     81  C         71.0940   23.8780   51.4160 C.2   241  ASN241      0.2292
     82  O         71.3010   22.6860   51.6130 O.2   241  ASN241     -0.2864
     83  CB        69.9710   24.0570   53.6360 C.3   241  ASN241      0.1181
     84  CG        69.7550   24.9050   54.8560 C.2   241  ASN241      0.2629
     85  OD1       70.5560   25.7990   55.1320 O.2   241  ASN241     -0.2716
     86  ND2       68.6820   24.6420   55.5990 N.am  241  ASN241     -0.0877
     87  N         65.2500   29.5420   44.7330 N.3   260  HIS260     -0.1241
     88  CA        66.1380   30.6960   44.7510 C.3   260  HIS260      0.1621
     89  C         67.4320   30.1550   45.3490 C.2   260  HIS260      0.2264
     90  O         67.4010   29.3450   46.2760 O.2   260  HIS260     -0.2867
     91  CB        65.5750   31.8550   45.5920 C.3   260  HIS260      0.0745
     92  CG        66.0850   31.8990   47.0010 C.ar  260  HIS260      0.0817
     93  ND1       65.2860   31.6260   48.0900 N.ar  260  HIS260     -0.2268
     94  CD2       67.3110   32.1930   47.4980 C.ar  260  HIS260      0.1154
     95  CE1       65.9970   31.7500   49.1970 C.ar  260  HIS260      0.1986
     96  NE2       67.2300   32.0920   48.8650 N.ar  260  HIS260     -0.2212
     97  N         71.5890   31.0620   46.7090 N.3   262  ASN262     -0.1240
     98  CA        72.3980   32.1320   47.2760 C.3   262  ASN262      0.1653
     99  C         73.8280   31.8750   46.8300 C.2   262  ASN262      0.2266
    100  O         74.5260   31.0390   47.4090 O.2   262  ASN262     -0.2867
    101  CB        72.3530   32.1430   48.8110 C.3   262  ASN262      0.1155
    102  CG        70.9470   32.0730   49.3630 C.2   262  ASN262      0.2627
    103  OD1       70.3560   31.0010   49.4400 O.2   262  ASN262     -0.2716
    104  ND2       70.4060   33.2150   49.7550 N.am  262  ASN262     -0.0877
    105  N         76.3410   33.7650   47.1730 N.3   264  HIS264     -0.1226
    106  CA        77.2640   34.1950   48.2140 C.3   264  HIS264      0.1752
    107  C         77.3030   33.2350   49.4050 C.2   264  HIS264      0.2595
    108  O         77.9870   33.4940   50.3870 O.2   264  HIS264     -0.2718
    109  CB        76.9040   35.6080   48.6880 C.3   264  HIS264      0.0759
    110  CG        75.4610   35.7770   49.0570 C.ar  264  HIS264      0.0818
    111  ND1       74.4330   35.5670   48.1610 N.ar  264  HIS264     -0.2268
    112  CD2       74.8740   36.1300   50.2260 C.ar  264  HIS264      0.1154
    113  CE1       73.2770   35.7810   48.7620 C.ar  264  HIS264      0.1986
    114  NE2       73.5160   36.1230   50.0160 N.ar  264  HIS264     -0.2212
    115  N         76.5480   32.1450   49.3290 N.am  265  LYS265     -0.1980
    116  CA        76.5510   31.1390   50.3840 C.3   265  LYS265      0.1596
    117  C         77.1200   29.8430   49.7960 C.2   265  LYS265      0.2287
    118  O         78.3020   29.5170   49.9600 O.2   265  LYS265     -0.2864
    119  CB        75.1320   30.8660   50.8970 C.3   265  LYS265      0.0298
    120  CG        74.5250   31.9150   51.8390 C.3   265  LYS265      0.0038
    121  CD        73.0740   31.5300   52.1540 C.3   265  LYS265      0.0206
    122  CE        72.4480   32.3500   53.2860 C.3   265  LYS265      0.1093
    123  NZ        72.3360   33.8030   52.9910 N.3   265  LYS265     -0.1314
@<TRIPOS>BOND
     1    87    88    1
     2    88    89    1
     3    88    91    1
     4    89    90    2
     5    91    92    1
     6    13    14    1
     7    97    98    1
     8    16    15    2
     9    99    98    1
    10    99   100    2
    11    30    29    2
    12    92    94   ar
    13    92    93   ar
    14   105   106    1
    15    27    28    1
    16    98   101    1
    17    29    28    1
    18    14    15    1
    19    14    17    1
    20    94    96   ar
    21    15    18   am
    22    28    31    1
    23    93    95   ar
    24   111   113   ar
    25   111   110   ar
    26   106   109    1
    27   106   107    1
    28    21    20    2
    29    18    19    1
    30   109   110    1
    31   113   114   ar
    32    19    20    1
    33   101   102    1
    34    96    95   ar
    35   110   112   ar
    36    20    22   am
    37    25    24    2
    38    24    23    1
    39    31    32    1
    40   115   107   am
    41   115   116    1
    42   102   103    2
    43   102   104   am
    44   107   108    2
    45    66    67    1
    46   117   118    2
    47   117   116    1
    48    68    67    1
    49    68    69    2
    50    32    33    1
    51    22    23    1
    52   114   112   ar
    53    67    70    1
    54    23    26    1
    55   116   119    1
    56   119   120    1
    57    74    75    1
    58    81    82    2
    59    81    80    1
    60    33    35   ar
    61    33    34   ar
    62    70    71    1
    63   120   121    1
    64    72    71   ar
    65    75    76    1
    66    75    78    1
    67    71    73   ar
    68   121   122    1
    69    79    76   am
    70    79    80    1
    71    76    77    2
    72    80    83    1
    73   123   122    1
    74    53    54    1
    75    53    52    1
    76    53    56    1
    77    54    55    2
    78    83    84    1
    79    58    56    1
    80    56    57    1
    81    10     9    2
    82    49    48    2
    83    51    50    1
    84    84    85    2
    85    84    86   am
    86    50    47    1
    87    48    47    1
    88     9     8    1
    89    47    46    1
    90     4     3    2
    91     8     7    1
    92     8    11    1
    93    42    44   ar
    94    42    41   ar
    95     3     7   am
    96     3     2    1
    97    44    45   ar
    98    11    12    1
    99    40    41    1
   100    40    37    1
   101    41    43   ar
   102     2     5    1
   103     2     1    1
   104    39    38    2
   105    45    43   ar
   106     6     5    1
   107    36    37    1
   108    65    63    1
   109    38    37    1
   110    59    60    1
   111    60    63    1
   112    60    61    1
   113    63    64    1
   114    61    62    2
