@<TRIPOS>MOLECULE
tmp/1wz1B00.pdb
 125 122 0 0 0
SMALL
GASTEIGER

@<TRIPOS>ATOM
      1  N         74.4540   19.4400  -33.1290 N.3     2  VAL2       -0.1245
      2  CA        73.6730   20.3530  -33.9520 C.3     2  VAL2        0.1561
      3  C         73.2480   21.5810  -33.1590 C.2     2  VAL2        0.2260
      4  O         72.6550   21.4660  -32.0850 O.2     2  VAL2       -0.2867
      5  CB        72.4120   19.6680  -34.5140 C.3     2  VAL2        0.0252
      6  CG1       71.5610   20.6830  -35.2700 C.3     2  VAL2        0.0019
      7  CG2       72.8120   18.5230  -35.4350 C.3     2  VAL2        0.0019
      8  N         71.4050   25.4710  -33.5960 N.3     4  LEU4       -0.1245
      9  CA        70.6000   26.4430  -34.3410 C.3     4  LEU4        0.1561
     10  C         70.1790   27.5610  -33.4070 C.2     4  LEU4        0.2260
     11  O         69.6180   27.3140  -32.3380 O.2     4  LEU4       -0.2867
     12  CB        69.3160   25.7900  -34.8800 C.3     4  LEU4        0.0270
     13  CG        69.5220   24.5630  -35.7560 C.3     4  LEU4        0.0019
     14  CD1       68.2340   23.7330  -35.8710 C.3     4  LEU4        0.0001
     15  CD2       69.9480   24.9300  -37.1810 C.3     4  LEU4        0.0001
     16  N         77.2480   22.1030  -36.7430 N.3    26  GLY26      -0.1210
     17  CA        77.0330   20.7160  -36.3730 C.3    26  GLY26       0.1956
     18  C         76.4130   19.8260  -37.4310 C.2    26  GLY26       0.2612
     19  O         76.1040   18.6660  -37.1530 O.2    26  GLY26      -0.2717
     20  N         76.2190   20.3500  -38.6360 N.am   27  PHE27      -0.1962
     21  CA        75.6430   19.5610  -39.7220 C.3    27  PHE27       0.1771
     22  C         76.0560   20.1610  -41.0620 C.2    27  PHE27       0.2620
     23  O         76.3750   21.3430  -41.1300 O.2    27  PHE27      -0.2715
     24  CB        74.1080   19.5130  -39.5950 C.3    27  PHE27       0.0574
     25  CG        73.4320   20.8600  -39.7210 C.ar   27  PHE27      -0.0200
     26  CD1       72.9770   21.3130  -40.9580 C.ar   27  PHE27      -0.0042
     27  CD2       73.2630   21.6730  -38.6050 C.ar   27  PHE27      -0.0042
     28  CE1       72.3640   22.5620  -41.0830 C.ar   27  PHE27      -0.0003
     29  CE2       72.6500   22.9250  -38.7140 C.ar   27  PHE27      -0.0003
     30  CZ        72.2010   23.3690  -39.9580 C.ar   27  PHE27      -0.0000
     31  N         76.0710   19.3500  -42.1170 N.am   28  THR28      -0.1951
     32  CA        76.4410   19.8360  -43.4480 C.3    28  THR28       0.1897
     33  C         75.3690   20.8110  -43.9180 C.2    28  THR28       0.2313
     34  O         74.2300   20.4270  -44.1810 O.2    28  THR28      -0.2863
     35  CB        76.5730   18.6820  -44.4670 C.3    28  THR28       0.1794
     36  OG1       75.3960   17.8680  -44.4370 O.3    28  THR28      -0.2208
     37  CG2       77.7960   17.8270  -44.1450 C.3    28  THR28       0.0378
     38  N         73.9680   21.2800  -48.3820 N.3    31  ASP31      -0.1225
     39  CA        72.9900   20.3860  -48.9970 C.3    31  ASP31       0.1805
     40  C         71.6840   20.3300  -48.2050 C.2    31  ASP31       0.2597
     41  O         70.7190   19.6900  -48.6180 O.2    31  ASP31      -0.2718
     42  CB        73.5620   18.9700  -49.1740 C.3    31  ASP31       0.1424
     43  CG        73.9380   18.3080  -47.8590 C.2    31  ASP31       0.3668
     44  OD1       73.6550   17.1030  -47.7140 O.co2  31  ASP31      -0.2456
     45  OD2       74.5240   18.9680  -46.9830 O.co2  31  ASP31      -0.2456
     46  N         71.6590   21.0170  -47.0710 N.am   32  ALA32      -0.1979
     47  CA        70.4650   21.0400  -46.2390 C.3    32  ALA32       0.1597
     48  C         69.4300   22.0160  -46.7830 C.2    32  ALA32       0.2287
     49  O         69.7760   23.0260  -47.3910 O.2    32  ALA32      -0.2864
     50  CB        70.8360   21.4250  -44.8020 C.3    32  ALA32       0.0319
     51  N         66.8330   24.5480  -45.5800 N.3    34  MET34      -0.1245
     52  CA        66.5280   25.2430  -44.3420 C.3    34  MET34       0.1570
     53  C         65.1220   25.8250  -44.3670 C.2    34  MET34       0.2261
     54  O         64.6460   26.2890  -45.4070 O.2    34  MET34      -0.2867
     55  CB        67.5720   26.3340  -44.0780 C.3    34  MET34       0.0387
     56  CG        69.0010   25.7890  -43.9390 C.3    34  MET34       0.0595
     57  SD        69.1380   24.4670  -42.6900 S.3    34  MET34      -0.1393
     58  CE        68.9690   25.4020  -41.1900 C.3    34  MET34       0.0692
     59  N         65.0800   22.6090  -40.4200 N.3   100  GLY100     -0.1210
     60  CA        65.3100   22.2400  -41.8030 C.3   100  GLY100      0.1956
     61  C         65.2570   20.7460  -42.0310 C.2   100  GLY100      0.2612
     62  O         65.0000   19.9710  -41.1080 O.2   100  GLY100     -0.2717
     63  N         65.4890   20.3380  -43.2720 N.am  101  ILE101     -0.1965
     64  CA        65.4780   18.9290  -43.6120 C.3   101  ILE101      0.1727
     65  C         66.5570   18.6130  -44.6370 C.2   101  ILE101      0.2616
     66  O         67.2850   19.4960  -45.0960 O.2   101  ILE101     -0.2715
     67  CB        64.1350   18.4850  -44.2340 C.3   101  ILE101      0.0290
     68  CG1       63.9560   19.1240  -45.6140 C.3   101  ILE101      0.0022
     69  CG2       62.9850   18.8690  -43.3260 C.3   101  ILE101      0.0023
     70  CD1       62.8600   18.4820  -46.4510 C.3   101  ILE101      0.0001
     71  N         66.6620   17.3280  -44.9500 N.am  102  TYR102     -0.1974
     72  CA        67.5730   16.8330  -45.9660 C.3   102  TYR102      0.1639
     73  C         66.6510   16.0800  -46.9150 C.2   102  TYR102      0.2290
     74  O         65.6520   15.5010  -46.4780 O.2   102  TYR102     -0.2864
     75  CB        68.6280   15.8950  -45.3680 C.3   102  TYR102      0.0560
     76  CG        69.7840   16.6150  -44.6980 C.ar  102  TYR102     -0.0198
     77  CD1       69.9660   16.5460  -43.3230 C.ar  102  TYR102     -0.0009
     78  CD2       70.7070   17.3550  -45.4490 C.ar  102  TYR102     -0.0009
     79  CE1       71.0350   17.1840  -42.7010 C.ar  102  TYR102      0.0417
     80  CE2       71.7870   18.0020  -44.8330 C.ar  102  TYR102      0.0417
     81  CZ        71.9430   17.9090  -43.4610 C.ar  102  TYR102      0.1957
     82  OH        73.0060   18.5160  -42.8330 O.3   102  TYR102     -0.2866
     83  N         65.6830   12.7510  -45.7520 N.3   105  TYR105     -0.1241
     84  CA        65.1650   12.7320  -44.3840 C.3   105  TYR105      0.1605
     85  C         64.2710   13.9570  -44.1840 C.2   105  TYR105      0.2264
     86  O         64.6140   14.8700  -43.4360 O.2   105  TYR105     -0.2867
     87  CB        66.3330   12.7640  -43.3950 C.3   105  TYR105      0.0534
     88  CG        67.4090   11.7480  -43.7120 C.ar  105  TYR105     -0.0201
     89  CD1       68.3050   11.9570  -44.7570 C.ar  105  TYR105     -0.0009
     90  CD2       67.4980   10.5560  -42.9950 C.ar  105  TYR105     -0.0009
     91  CE1       69.2640   10.9970  -45.0840 C.ar  105  TYR105      0.0417
     92  CE2       68.4480    9.5910  -43.3100 C.ar  105  TYR105      0.0417
     93  CZ        69.3270    9.8150  -44.3560 C.ar  105  TYR105      0.1957
     94  OH        70.2590    8.8530  -44.6810 O.3   105  TYR105     -0.2866
     95  N         62.1620   15.4630  -42.3660 N.3   107  TRP107     -0.1241
     96  CA        61.5640   15.7520  -41.0670 C.3   107  TRP107      0.1605
     97  C         62.4000   16.7920  -40.3270 C.2   107  TRP107      0.2264
     98  O         63.6210   16.8420  -40.4770 O.2   107  TRP107     -0.2867
     99  CB        61.3920   14.4710  -40.2290 C.3   107  TRP107      0.0550
    100  CG        62.5660   13.5300  -40.1820 C.ar  107  TRP107      0.0003
    101  CD1       63.6530   13.6000  -39.3590 C.ar  107  TRP107      0.0946
    102  CD2       62.7470   12.3620  -40.9880 C.ar  107  TRP107      0.0152
    103  NE1       64.5020   12.5410  -39.6040 N.ar  107  TRP107     -0.2442
    104  CE2       63.9680   11.7670  -40.5980 C.ar  107  TRP107      0.0810
    105  CE3       61.9950   11.7610  -42.0050 C.ar  107  TRP107      0.0012
    106  CZ2       64.4540   10.5960  -41.1890 C.ar  107  TRP107      0.0191
    107  CZ3       62.4850   10.5920  -42.5970 C.ar  107  TRP107      0.0001
    108  CH2       63.7010   10.0280  -42.1830 C.ar  107  TRP107      0.0015
    109  N         64.2260   17.5570  -37.7330 N.3   109  ALA109     -0.1231
    110  CA        64.9600   16.8970  -36.6730 C.3   109  ALA109      0.1694
    111  C         65.4610   17.8110  -35.5680 C.2   109  ALA109      0.2592
    112  O         65.4670   17.4210  -34.4090 O.2   109  ALA109     -0.2718
    113  CB        66.1260   16.1250  -37.2680 C.3   109  ALA109      0.0304
    114  N         65.8790   19.0220  -35.9210 N.am  110  TYR110     -0.1976
    115  CA        66.4050   19.9550  -34.9290 C.3   110  TYR110      0.1639
    116  C         65.8310   21.3570  -35.0800 C.2   110  TYR110      0.2290
    117  O         65.7130   21.8760  -36.1970 O.2   110  TYR110     -0.2864
    118  CB        67.9290   20.0080  -35.0280 C.3   110  TYR110      0.0560
    119  CG        68.5810   18.7090  -34.6330 C.ar  110  TYR110     -0.0198
    120  CD1       68.7650   18.3750  -33.2920 C.ar  110  TYR110     -0.0009
    121  CD2       68.9640   17.7880  -35.5980 C.ar  110  TYR110     -0.0009
    122  CE1       69.3190   17.1440  -32.9250 C.ar  110  TYR110      0.0417
    123  CE2       69.5120   16.5640  -35.2480 C.ar  110  TYR110      0.0417
    124  CZ        69.6890   16.2430  -33.9160 C.ar  110  TYR110      0.1957
    125  OH        70.2300   15.0180  -33.5830 O.3   110  TYR110     -0.2866
@<TRIPOS>BOND
     1    42    39    1
     2    42    43    1
     3    39    38    1
     4    39    40    1
     5    41    40    2
     6    40    46   am
     7    43    44   ar
     8    43    45   ar
     9    49    48    2
    10    46    47    1
    11    73    74    2
    12    73    72    1
    13    48    47    1
    14    70    68    1
    15    47    50    1
    16    72    75    1
    17    72    71    1
    18    83    84    1
    19    68    67    1
    20    51    52    1
    21    78    80   ar
    22    78    76   ar
    23    54    53    2
    24    75    76    1
    25    66    65    2
    26    91    89   ar
    27    91    93   ar
    28    71    65   am
    29    80    81   ar
    30    89    88   ar
    31    76    77   ar
    32    94    93    1
    33    65    64    1
    34    35    36    1
    35    35    37    1
    36    35    32    1
    37    84    85    1
    38    84    87    1
    39    53    52    1
    40    93    92   ar
    41    52    55    1
    42    67    64    1
    43    67    69    1
    44    85    86    2
    45    34    33    2
    46    55    56    1
    47    56    57    1
    48    33    32    1
    49    88    87    1
    50    88    90   ar
    51    64    63    1
    52    81    82    1
    53    81    79   ar
    54    32    31    1
    55    77    79   ar
    56    92    90   ar
    57    63    61   am
    58    57    58    1
    59   107   108   ar
    60   107   105   ar
    61    95    96    1
    62   108   106   ar
    63    31    22   am
    64    61    60    1
    65    61    62    2
    66   105   102   ar
    67    60    59    1
    68   106   104   ar
    69    23    22    2
    70    28    26   ar
    71    28    30   ar
    72    96    97    1
    73    96    99    1
    74    22    21    1
    75   102   104   ar
    76   102   100   ar
    77    26    25   ar
    78   104   103   ar
    79    98    97    2
    80    99   100    1
    81   100   101   ar
    82    30    29   ar
    83    21    24    1
    84    21    20    1
    85    25    24    1
    86    25    27   ar
    87   103   101   ar
    88    29    27   ar
    89    20    18   am
    90   109   110    1
    91    18    19    2
    92    18    17    1
    93   113   110    1
    94    15    13    1
    95    16    17    1
    96   110   111    1
    97   117   116    2
    98   114   111   am
    99   114   115    1
   100    14    13    1
   101    13    12    1
   102   121   123   ar
   103   121   119   ar
   104   111   112    2
   105     7     5    1
   106     6     5    1
   107   123   124   ar
   108   116   115    1
   109   118   115    1
   110   118   119    1
   111    12     9    1
   112   119   120   ar
   113     5     2    1
   114     9     8    1
   115     9    10    1
   116     2     3    1
   117     2     1    1
   118   124   125    1
   119   124   122   ar
   120    10    11    2
   121   120   122   ar
   122     3     4    2
