@<TRIPOS>MOLECULE
tmp/1wz8D01.pdb
 119 110 0 0 0
SMALL
GASTEIGER

@<TRIPOS>ATOM
      1  N         11.7950   63.3470  115.2720 N.3    38  HIS38      -0.1241
      2  CA        10.4800   63.7170  114.7580 C.3    38  HIS38       0.1621
      3  C         10.1800   62.9130  113.4980 C.2    38  HIS38       0.2264
      4  O          9.0760   62.3950  113.3310 O.2    38  HIS38      -0.2867
      5  CB        10.4160   65.2190  114.4530 C.3    38  HIS38       0.0745
      6  CG         9.0640   65.6840  114.0070 C.ar   38  HIS38       0.0817
      7  ND1        8.7200   65.8150  112.6790 N.ar   38  HIS38      -0.2268
      8  CD2        7.9560   66.0050  114.7160 C.ar   38  HIS38       0.1154
      9  CE1        7.4590   66.1960  112.5870 C.ar   38  HIS38       0.1986
     10  NE2        6.9720   66.3180  113.8100 N.ar   38  HIS38      -0.2212
     11  N          8.4920   69.3150  119.5650 N.3    70  GLY70      -0.1225
     12  CA         9.6110   69.6580  118.7020 C.3    70  GLY70       0.1811
     13  C         10.6450   70.5130  119.4150 C.2    70  GLY70       0.2280
     14  O         10.2990   71.4230  120.1680 O.2    70  GLY70      -0.2866
     15  N         14.8610   71.8700  115.8070 N.3    74  LEU74      -0.1231
     16  CA        13.9650   71.4750  114.7280 C.3    74  LEU74       0.1693
     17  C         13.2440   72.7020  114.1760 C.2    74  LEU74       0.2591
     18  O         13.1810   72.9080  112.9670 O.2    74  LEU74      -0.2718
     19  CB        12.9420   70.4530  115.2400 C.3    74  LEU74       0.0284
     20  CG        11.8430   70.0150  114.2630 C.3    74  LEU74       0.0019
     21  CD1       12.4680   69.5610  112.9470 C.3    74  LEU74       0.0001
     22  CD2       11.0380   68.8790  114.8810 C.3    74  LEU74       0.0001
     23  N         12.7100   73.5160  115.0780 N.am   75  ILE75      -0.1980
     24  CA        11.9860   74.7240  114.7020 C.3    75  ILE75       0.1595
     25  C         12.8610   75.7060  113.9160 C.2    75  ILE75       0.2287
     26  O         12.4080   76.3020  112.9360 O.2    75  ILE75      -0.2864
     27  CB        11.4150   75.4170  115.9600 C.3    75  ILE75       0.0276
     28  CG1       10.3910   74.4870  116.6250 C.3    75  ILE75       0.0022
     29  CG2       10.7720   76.7550  115.5890 C.3    75  ILE75       0.0022
     30  CD1        9.8720   74.9730  117.9730 C.3    75  ILE75       0.0001
     31  N         13.4630   74.4330  110.4190 N.3    78  MET78      -0.1245
     32  CA        12.2710   74.6600  109.6070 C.3    78  MET78       0.1570
     33  C         12.2080   76.0950  109.1030 C.2    78  MET78       0.2261
     34  O         11.8630   76.3380  107.9490 O.2    78  MET78      -0.2867
     35  CB        11.0140   74.3510  110.4220 C.3    78  MET78       0.0387
     36  CG        10.8710   72.8880  110.8210 C.3    78  MET78       0.0595
     37  SD         9.5920   72.6500  112.0690 S.3    78  MET78      -0.1393
     38  CE         8.1180   72.9780  111.1090 C.3    78  MET78       0.0692
     39  N          9.1440   68.6520  107.0070 N.3    88  VAL88      -0.1245
     40  CA         8.5040   68.5200  108.3090 C.3    88  VAL88       0.1561
     41  C          6.9800   68.5730  108.2140 C.2    88  VAL88       0.2260
     42  O          6.2860   67.9600  109.0220 O.2    88  VAL88      -0.2867
     43  CB         9.0120   69.5990  109.2870 C.3    88  VAL88       0.0252
     44  CG1        8.3180   69.4490  110.6300 C.3    88  VAL88       0.0019
     45  CG2       10.5240   69.4640  109.4630 C.3    88  VAL88       0.0019
     46  N          4.8400   65.9310  110.1540 N.3    92  ALA92      -0.1245
     47  CA         3.8480   66.3340  111.1450 C.3    92  ALA92       0.1562
     48  C          2.5160   65.6580  110.8390 C.2    92  ALA92       0.2260
     49  O          1.8330   65.1720  111.7370 O.2    92  ALA92      -0.2867
     50  CB         3.6900   67.8500  111.1390 C.3    92  ALA92       0.0290
     51  N          4.1160   68.4550  119.5430 N.3   117  ALA117     -0.1245
     52  CA         4.2000   67.1620  118.8780 C.3   117  ALA117      0.1562
     53  C          4.0670   66.0210  119.8820 C.2   117  ALA117      0.2260
     54  O          3.5990   64.9330  119.5380 O.2   117  ALA117     -0.2867
     55  CB         5.5220   67.0430  118.1150 C.3   117  ALA117      0.0290
     56  N          1.3240   75.9420  120.9910 N.3   140  HIS140     -0.1241
     57  CA         1.6570   76.7040  119.7680 C.3   140  HIS140      0.1621
     58  C          1.4420   78.2350  119.8880 C.2   140  HIS140      0.2264
     59  O          2.2500   79.0390  119.4420 O.2   140  HIS140     -0.2867
     60  CB         0.8140   76.1510  118.6180 C.3   140  HIS140      0.0745
     61  CG         1.2270   74.7320  118.3280 C.ar  140  HIS140      0.0817
     62  ND1        0.5190   73.6510  118.7410 N.ar  140  HIS140     -0.2268
     63  CD2        2.3440   74.2850  117.6140 C.ar  140  HIS140      0.1154
     64  CE1        1.1950   72.5790  118.2820 C.ar  140  HIS140      0.1986
     65  NE2        2.2910   72.9290  117.6050 N.ar  140  HIS140     -0.2212
     66  N          4.1140   80.0220  121.4140 N.3   143  LEU143     -0.1245
     67  CA         5.2480   79.9850  120.5080 C.3   143  LEU143      0.1561
     68  C          5.0820   81.0200  119.3990 C.2   143  LEU143      0.2260
     69  O          6.0620   81.4820  118.8170 O.2   143  LEU143     -0.2867
     70  CB         5.3610   78.5750  119.9190 C.3   143  LEU143      0.0270
     71  CG         6.6130   78.1400  119.1580 C.3   143  LEU143      0.0019
     72  CD1        7.8580   78.3510  120.0150 C.3   143  LEU143      0.0001
     73  CD2        6.4670   76.6710  118.7840 C.3   143  LEU143      0.0001
     74  N          2.5750   80.6000  116.7480 N.3   145  VAL145     -0.1245
     75  CA         2.0400   80.0030  115.5300 C.3   145  VAL145      0.1561
     76  C          0.7140   79.3070  115.8270 C.2   145  VAL145      0.2260
     77  O          0.3830   79.0340  116.9900 O.2   145  VAL145     -0.2867
     78  CB         3.0190   78.9730  114.9110 C.3   145  VAL145      0.0252
     79  CG1        4.3080   79.6710  114.4740 C.3   145  VAL145      0.0019
     80  CG2        3.3210   77.8750  115.9120 C.3   145  VAL145      0.0019
     81  N         -0.6160   71.1910  114.5070 N.3   149  ASP149     -0.1239
     82  CA        -0.0060   69.8650  114.4300 C.3   149  ASP149      0.1674
     83  C         -0.8420   68.6980  114.9520 C.2   149  ASP149      0.2266
     84  O         -0.3600   67.5590  114.9830 O.2   149  ASP149     -0.2867
     85  CB         1.3890   69.8530  115.0860 C.3   149  ASP149      0.1410
     86  CG         1.3470   70.0280  116.5930 C.2   149  ASP149      0.3668
     87  OD1        0.2630   69.9090  117.1940 O.co2 149  ASP149     -0.2456
     88  OD2        2.4260   70.2650  117.1800 O.co2 149  ASP149     -0.2456
     89  N         -0.3310   76.8710  109.9910 N.3   238  GLU238     -0.1231
     90  CA         0.6980   76.9520  111.0160 C.3   238  GLU238      0.1699
     91  C          2.0500   77.1890  110.3490 C.2   238  GLU238      0.2592
     92  O          2.7910   78.0960  110.7250 O.2   238  GLU238     -0.2718
     93  CB         0.7860   75.6570  111.8290 C.3   238  GLU238      0.0402
     94  CG         1.7570   75.7790  112.9920 C.3   238  GLU238      0.1161
     95  CD         2.1320   74.4540  113.6200 C.2   238  GLU238      0.3649
     96  OE1        1.2910   73.5330  113.6360 O.co2 238  GLU238     -0.2457
     97  OE2        3.2740   74.3430  114.1210 O.co2 238  GLU238     -0.2457
     98  N          2.3510   76.3730  109.3440 N.am  239  PHE239     -0.1976
     99  CA         3.6260   76.4650  108.6430 C.3   239  PHE239      0.1639
    100  C          3.8150   77.7560  107.8540 C.2   239  PHE239      0.2290
    101  O          4.9490   78.1930  107.6480 O.2   239  PHE239     -0.2864
    102  CB         3.8170   75.2210  107.7650 C.3   239  PHE239      0.0560
    103  CG         4.2610   74.0030  108.5410 C.ar  239  PHE239     -0.0200
    104  CD1        3.6270   73.6530  109.7310 C.ar  239  PHE239     -0.0042
    105  CD2        5.3290   73.2280  108.1000 C.ar  239  PHE239     -0.0042
    106  CE1        4.0540   72.5460  110.4810 C.ar  239  PHE239     -0.0003
    107  CE2        5.7670   72.1240  108.8350 C.ar  239  PHE239     -0.0003
    108  CZ         5.1270   71.7820  110.0320 C.ar  239  PHE239     -0.0000
    109  N          5.4830   80.2800  109.9270 N.3   242  PHE242     -0.1241
    110  CA         6.8950   80.1210  110.2580 C.3   242  PHE242      0.1605
    111  C          7.8030   81.2110  109.7010 C.2   242  PHE242      0.2264
    112  O          8.9520   81.3420  110.1240 O.2   242  PHE242     -0.2867
    113  CB         7.3990   78.7510  109.8070 C.3   242  PHE242      0.0534
    114  CG         7.3890   77.7270  110.8980 C.ar  242  PHE242     -0.0203
    115  CD1        6.1910   77.3320  111.4870 C.ar  242  PHE242     -0.0042
    116  CD2        8.5810   77.1820  111.3660 C.ar  242  PHE242     -0.0042
    117  CE1        6.1790   76.4140  112.5290 C.ar  242  PHE242     -0.0003
    118  CE2        8.5820   76.2610  112.4110 C.ar  242  PHE242     -0.0003
    119  CZ         7.3800   75.8760  112.9930 C.ar  242  PHE242     -0.0000
@<TRIPOS>BOND
     1    39    40    1
     2   101   100    2
     3   102   103    1
     4   102    99    1
     5   100    99    1
     6    34    33    2
     7   105   103   ar
     8   105   107   ar
     9    41    40    1
    10    41    42    2
    11    40    43    1
    12   103   104   ar
    13    99    98    1
    14   107   108   ar
    15    33    32    1
    16    43    45    1
    17    43    44    1
    18    98    91   am
    19    32    31    1
    20    32    35    1
    21   111   112    2
    22   111   110    1
    23   104   106   ar
    24   113   110    1
    25   113   114    1
    26   109   110    1
    27    89    90    1
    28   108   106   ar
    29    46    47    1
    30    91    92    2
    31    91    90    1
    32    35    36    1
    33    36    37    1
    34    48    47    1
    35    48    49    2
    36   114   116   ar
    37   114   115   ar
    38    90    93    1
    39    38    37    1
    40    50    47    1
    41   116   118   ar
    42   115   117   ar
    43    93    94    1
    44   118   119   ar
    45   117   119   ar
    46     9     7   ar
    47     9    10   ar
    48     7     6   ar
    49    26    25    2
    50    21    20    1
    51    18    17    2
    52    94    95    1
    53     4     3    2
    54     3     2    1
    55    95    96   ar
    56    95    97   ar
    57    10     8   ar
    58    25    24    1
    59     6     5    1
    60     6     8   ar
    61    17    16    1
    62    17    23   am
    63    20    22    1
    64    20    19    1
    65    82    81    1
    66    82    83    1
    67    82    85    1
    68     5     2    1
    69    79    78    1
    70    24    23    1
    71    24    27    1
    72    16    19    1
    73    16    15    1
    74     2     1    1
    75    78    75    1
    76    78    80    1
    77    83    84    2
    78    85    86    1
    79    75    76    1
    80    75    74    1
    81    29    27    1
    82    76    77    2
    83    27    28    1
    84    86    88   ar
    85    86    87   ar
    86    28    30    1
    87    65    63   ar
    88    65    64   ar
    89    63    61   ar
    90    55    52    1
    91    64    62   ar
    92    61    60    1
    93    61    62   ar
    94    60    57    1
    95    12    13    1
    96    12    11    1
    97    73    71    1
    98    69    68    2
    99    52    51    1
   100    52    53    1
   101    71    70    1
   102    71    72    1
   103    68    67    1
   104    13    14    2
   105    59    58    2
   106    54    53    2
   107    57    58    1
   108    57    56    1
   109    70    67    1
   110    67    66    1
