@<TRIPOS>MOLECULE
tmp/1wzdB00.pdb
 166 156 0 0 0
SMALL
GASTEIGER

@<TRIPOS>ATOM
      1  N        -20.6860   29.0130   11.1970 N.3     7  LYS7       -0.1245
      2  CA       -20.0210   29.9880   10.3420 C.3     7  LYS7        0.1561
      3  C        -18.9270   30.7420   11.1150 C.2     7  LYS7        0.2260
      4  O        -17.8000   30.8890   10.6320 O.2     7  LYS7       -0.2867
      5  CB       -21.0400   30.9660    9.7560 C.3     7  LYS7        0.0271
      6  CG       -20.4430   31.9910    8.8080 C.3     7  LYS7        0.0035
      7  CD       -21.5290   32.8470    8.1850 C.3     7  LYS7        0.0206
      8  CE       -20.9670   33.9800    7.3480 C.3     7  LYS7        0.1093
      9  NZ       -22.0550   34.5870    6.5350 N.3     7  LYS7       -0.1314
     10  N        -11.8880   28.8090    7.1030 N.3    14  HIS14      -0.1241
     11  CA       -12.6110   29.0440    5.8570 C.3    14  HIS14       0.1621
     12  C        -11.8850   30.0830    4.9880 C.2    14  HIS14       0.2264
     13  O        -11.6000   29.8370    3.8160 O.2    14  HIS14      -0.2867
     14  CB       -14.0370   29.4990    6.1580 C.3    14  HIS14       0.0745
     15  CG       -14.9380   29.4990    4.9630 C.ar   14  HIS14       0.0817
     16  ND1      -16.2990   29.6730    5.0650 N.ar   14  HIS14      -0.2268
     17  CD2      -14.6760   29.3210    3.6460 C.ar   14  HIS14       0.1154
     18  CE1      -16.8380   29.6040    3.8590 C.ar   14  HIS14       0.1986
     19  NE2      -15.8740   29.4010    2.9800 N.ar   14  HIS14      -0.2212
     20  N         -8.7030   28.6720    3.5120 N.3    17  ALA17      -0.1231
     21  CA        -8.9710   27.6900    2.4490 C.3    17  ALA17       0.1694
     22  C         -9.4200   28.3530    1.1510 C.2    17  ALA17       0.2591
     23  O         -8.9320   28.0170    0.0680 O.2    17  ALA17      -0.2718
     24  CB       -10.0110   26.6880    2.9090 C.3    17  ALA17       0.0304
     25  N        -10.3310   29.3130    1.2840 N.am   18  GLU18      -0.1979
     26  CA       -10.9230   30.0020    0.1370 C.3    18  GLU18       0.1602
     27  C         -9.8700   30.8120   -0.6200 C.2    18  GLU18       0.2287
     28  O         -9.9410   30.9350   -1.8460 O.2    18  GLU18      -0.2864
     29  CB       -12.0680   30.9040    0.6180 C.3    18  GLU18       0.0415
     30  CG       -13.1190   31.2410   -0.4330 C.3    18  GLU18       0.1163
     31  CD       -14.3500   31.8650    0.2010 C.2    18  GLU18       0.3649
     32  OE1      -14.5070   33.0980    0.0620 O.co2  18  GLU18      -0.2457
     33  OE2      -15.1390   31.1370    0.8670 O.co2  18  GLU18      -0.2457
     34  N         -6.4350   28.0530   -5.8050 N.3    23  MET23      -0.1245
     35  CA        -7.8360   28.3360   -6.0870 C.3    23  MET23       0.1570
     36  C         -8.0130   29.7810   -6.5420 C.2    23  MET23       0.2261
     37  O         -8.8030   30.0550   -7.4420 O.2    23  MET23      -0.2867
     38  CB        -8.6980   28.0200   -4.8630 C.3    23  MET23       0.0387
     39  CG       -10.1190   27.5600   -5.1330 C.3    23  MET23       0.0595
     40  SD       -10.3080   26.3410   -6.4570 S.3    23  MET23      -0.1393
     41  CE       -11.0400   27.4040   -7.6960 C.3    23  MET23       0.0692
     42  N         -9.4750   30.7660  -10.2180 N.3    27  LEU27      -0.1245
     43  CA       -10.7000   31.5480  -10.3530 C.3    27  LEU27       0.1561
     44  C        -10.5200   32.8630  -11.1140 C.2    27  LEU27       0.2260
     45  O        -11.4640   33.3470  -11.7440 O.2    27  LEU27      -0.2867
     46  CB       -11.3330   31.8090   -8.9790 C.3    27  LEU27       0.0270
     47  CG       -12.4740   30.8880   -8.5400 C.3    27  LEU27       0.0019
     48  CD1      -12.6450   30.9220   -7.0320 C.3    27  LEU27       0.0001
     49  CD2      -13.7700   31.2940   -9.2280 C.3    27  LEU27       0.0001
     50  N        -21.5640   19.8510    5.2380 N.3   124  TYR124     -0.1227
     51  CA       -21.7370   21.2990    5.1680 C.3   124  TYR124      0.1736
     52  C        -20.6220   21.9550    4.3600 C.2   124  TYR124      0.2595
     53  O        -20.8870   22.7240    3.4260 O.2   124  TYR124     -0.2718
     54  CB       -21.7900   21.8810    6.5810 C.3   124  TYR124      0.0548
     55  CG       -21.6360   23.3850    6.6680 C.ar  124  TYR124     -0.0200
     56  CD1      -22.7310   24.2240    6.4800 C.ar  124  TYR124     -0.0009
     57  CD2      -20.4000   23.9650    6.9570 C.ar  124  TYR124     -0.0009
     58  CE1      -22.6010   25.6100    6.5770 C.ar  124  TYR124      0.0417
     59  CE2      -20.2550   25.3470    7.0560 C.ar  124  TYR124      0.0417
     60  CZ       -21.3630   26.1600    6.8600 C.ar  124  TYR124      0.1957
     61  OH       -21.2410   27.5280    6.9570 O.3   124  TYR124     -0.2866
     62  N        -19.3740   21.6500    4.7120 N.am  125  VAL125     -0.1966
     63  CA       -18.2320   22.2970    4.0710 C.3   125  VAL125      0.1727
     64  C        -18.1970   22.0460    2.5590 C.2   125  VAL125      0.2616
     65  O        -18.0040   22.9790    1.7720 O.2   125  VAL125     -0.2715
     66  CB       -16.9000   21.8990    4.7500 C.3   125  VAL125      0.0290
     67  CG1      -15.6900   22.3880    3.9450 C.3   125  VAL125      0.0023
     68  CG2      -16.8640   22.4360    6.1930 C.3   125  VAL125      0.0023
     69  N        -18.4140   20.8010    2.1390 N.am  126  ARG126     -0.1977
     70  CA       -18.4160   20.5170    0.7050 C.3   126  ARG126      0.1597
     71  C        -19.6790   20.9890   -0.0090 C.2   126  ARG126      0.2287
     72  O        -19.5880   21.7690   -0.9600 O.2   126  ARG126     -0.2864
     73  CB       -18.1390   19.0420    0.3940 C.3   126  ARG126      0.0334
     74  CG       -16.6750   18.6280    0.5990 C.3   126  ARG126      0.0492
     75  CD       -15.6550   19.5530   -0.1000 C.3   126  ARG126      0.2205
     76  NE       -16.0120   19.8530   -1.4890 N.pl3 126  ARG126     -0.0865
     77  CZ       -15.2190   20.4730   -2.3570 C.cat 126  ARG126      0.5346
     78  NH1      -14.0050   20.8600   -2.0060 N.pl3 126  ARG126      0.1354
     79  NH2      -15.6600   20.7180   -3.5810 N.pl3 126  ARG126      0.1354
     80  N        -22.4870   22.8450    0.8360 N.3   128  LEU128     -0.1231
     81  CA       -22.8510   24.2640    0.8630 C.3   128  LEU128      0.1693
     82  C        -21.8300   25.1260    0.1140 C.2   128  LEU128      0.2592
     83  O        -22.1880   26.1640   -0.4400 O.2   128  LEU128     -0.2718
     84  CB       -23.1100   24.7690    2.2860 C.3   128  LEU128      0.0284
     85  CG       -24.4390   24.4440    2.9700 C.3   128  LEU128      0.0019
     86  CD1      -24.8710   25.6210    3.8380 C.3   128  LEU128      0.0001
     87  CD2      -25.5580   24.0970    2.0010 C.3   128  LEU128      0.0001
     88  N        -20.5680   24.6940    0.0870 N.am  129  GLY129     -0.1957
     89  CA       -19.5580   25.3180   -0.7790 C.3   129  GLY129      0.1869
     90  C        -19.9560   25.1770   -2.2420 C.2   129  GLY129      0.2309
     91  O        -19.9590   26.1530   -3.0070 O.2   129  GLY129     -0.2863
     92  N        -22.6380   27.4540   -3.4350 N.3   132  SER132     -0.1202
     93  CA       -22.3360   28.8860   -3.3470 C.3   132  SER132      0.2020
     94  C        -21.0900   29.2350   -4.1870 C.2   132  SER132      0.2619
     95  O        -21.2150   29.5820   -5.3710 O.2   132  SER132     -0.2717
     96  CB       -22.1940   29.3250   -1.8820 C.3   132  SER132      0.2103
     97  OG       -21.1610   28.6130   -1.2220 O.3   132  SER132     -0.2182
     98  N        -19.8990   29.1270   -3.6050 N.am  133  GLY133     -0.1956
     99  CA       -18.6490   29.3380   -4.3530 C.3   133  GLY133      0.1869
    100  C        -18.5390   28.5090   -5.6170 C.2   133  GLY133      0.2309
    101  O        -18.0220   28.9860   -6.6350 O.2   133  GLY133     -0.2863
    102  N        -19.8240   30.1240   -8.7230 N.3   136  VAL136     -0.1231
    103  CA       -18.8750   31.0940   -9.2750 C.3   136  VAL136      0.1692
    104  C        -17.7830   30.3630  -10.0660 C.2   136  VAL136      0.2591
    105  O        -17.4290   30.7700  -11.1780 O.2   136  VAL136     -0.2718
    106  CB       -18.2060   31.9410   -8.1630 C.3   136  VAL136      0.0266
    107  CG1      -17.3100   33.0310   -8.7690 C.3   136  VAL136      0.0020
    108  CG2      -19.2490   32.5510   -7.2270 C.3   136  VAL136      0.0020
    109  N        -17.2390   29.2930   -9.4900 N.am  137  ILE137     -0.1980
    110  CA       -16.2370   28.4740  -10.1740 C.3   137  ILE137      0.1595
    111  C        -16.7500   28.0120  -11.5450 C.2   137  ILE137      0.2287
    112  O        -16.0700   28.1780  -12.5630 O.2   137  ILE137     -0.2864
    113  CB       -15.7930   27.2540   -9.3180 C.3   137  ILE137      0.0276
    114  CG1      -15.0810   27.7160   -8.0380 C.3   137  ILE137      0.0022
    115  CG2      -14.8670   26.3670  -10.1210 C.3   137  ILE137      0.0022
    116  CD1      -14.8590   26.6220   -6.9980 C.3   137  ILE137      0.0001
    117  N        -30.4910   26.4950    0.4860 N.3   167  LYS167     -0.1245
    118  CA       -29.4990   26.8520    1.4940 C.3   167  LYS167      0.1561
    119  C        -30.1480   27.3490    2.7980 C.2   167  LYS167      0.2260
    120  O        -29.7210   26.9790    3.8980 O.2   167  LYS167     -0.2867
    121  CB       -28.4800   27.8440    0.9070 C.3   167  LYS167      0.0271
    122  CG       -27.5730   27.2030   -0.1700 C.3   167  LYS167      0.0035
    123  CD       -26.4980   28.1490   -0.7170 C.3   167  LYS167      0.0206
    124  CE       -27.0740   29.0050   -1.8270 C.3   167  LYS167      0.1093
    125  NZ       -26.0730   29.8720   -2.5320 N.3   167  LYS167     -0.1314
    126  N        -29.7980   25.4480    6.5070 N.3   171  ARG171     -0.1245
    127  CA       -29.3830   26.1020    7.7440 C.3   171  ARG171      0.1563
    128  C        -30.4200   25.9390    8.8480 C.2   171  ARG171      0.2260
    129  O        -30.0640   25.8030   10.0140 O.2   171  ARG171     -0.2867
    130  CB       -29.0320   27.5730    7.5110 C.3   171  ARG171      0.0307
    131  CG       -27.7820   27.7590    6.6750 C.3   171  ARG171      0.0489
    132  CD       -27.3680   29.2130    6.6080 C.3   171  ARG171      0.2205
    133  NE       -27.1280   29.6030    5.2230 N.pl3 171  ARG171     -0.0865
    134  CZ       -28.0340   30.1790    4.4360 C.cat 171  ARG171      0.5346
    135  NH1      -29.2500   30.4550    4.8940 N.pl3 171  ARG171      0.1354
    136  NH2      -27.7230   30.4800    3.1860 N.pl3 171  ARG171      0.1354
    137  N        -12.3890   22.3980    6.4760 N.3   195  PHE195     -0.1241
    138  CA       -11.8170   23.5060    5.7010 C.3   195  PHE195      0.1605
    139  C        -10.3030   23.3540    5.5210 C.2   195  PHE195      0.2264
    140  O         -9.7700   23.5650    4.4240 O.2   195  PHE195     -0.2867
    141  CB       -12.1480   24.8730    6.3060 C.3   195  PHE195      0.0534
    142  CG       -13.5530   25.3460    6.0170 C.ar  195  PHE195     -0.0203
    143  CD1      -14.4970   25.4330    7.0380 C.ar  195  PHE195     -0.0042
    144  CD2      -13.9360   25.6930    4.7190 C.ar  195  PHE195     -0.0042
    145  CE1      -15.8080   25.8850    6.7860 C.ar  195  PHE195     -0.0003
    146  CE2      -15.2390   26.1400    4.4640 C.ar  195  PHE195     -0.0003
    147  CZ       -16.1720   26.2340    5.4970 C.ar  195  PHE195     -0.0000
    148  N         -9.3640   20.8000    2.9120 N.3   198  ASN198     -0.1240
    149  CA        -9.5360   21.3650    1.5790 C.3   198  ASN198      0.1653
    150  C         -8.4550   22.3660    1.1830 C.2   198  ASN198      0.2266
    151  O         -7.9880   22.3690    0.0400 O.2   198  ASN198     -0.2867
    152  CB       -10.9420   21.9250    1.4200 C.3   198  ASN198      0.1155
    153  CG       -11.9530   20.8380    1.1270 C.2   198  ASN198      0.2627
    154  OD1      -12.0800   20.4030   -0.0140 O.2   198  ASN198     -0.2716
    155  ND2      -12.6720   20.3840    2.1540 N.am  198  ASN198     -0.0877
    156  N         -5.7370   22.0820   -2.0950 N.3   202  PHE202     -0.1241
    157  CA        -5.3140   23.1800   -2.9780 C.3   202  PHE202      0.1605
    158  C         -3.7980   23.3790   -2.9930 C.2   202  PHE202      0.2264
    159  O         -3.2140   23.6180   -4.0450 O.2   202  PHE202     -0.2867
    160  CB        -5.9830   24.5000   -2.5770 C.3   202  PHE202      0.0534
    161  CG        -7.4830   24.5170   -2.7390 C.ar  202  PHE202     -0.0203
    162  CD1       -8.0930   23.8490   -3.7930 C.ar  202  PHE202     -0.0042
    163  CD2       -8.2770   25.2580   -1.8650 C.ar  202  PHE202     -0.0042
    164  CE1       -9.4680   23.8800   -3.9460 C.ar  202  PHE202     -0.0003
    165  CE2       -9.6540   25.2970   -2.0030 C.ar  202  PHE202     -0.0003
    166  CZ       -10.2540   24.6040   -3.0560 C.ar  202  PHE202     -0.0000
@<TRIPOS>BOND
     1   112   111    2
     2    45    44    2
     3   111   110    1
     4   105   104    2
     5    44    43    1
     6    43    42    1
     7    43    46    1
     8   110   109    1
     9   110   113    1
    10   115   113    1
    11   104   109   am
    12   104   103    1
    13   113   114    1
    14   103   102    1
    15   103   106    1
    16    49    47    1
    17    46    47    1
    18   107   106    1
    19    47    48    1
    20   106   108    1
    21   114   116    1
    22    41    40    1
    23    37    36    2
    24   101   100    2
    25    36    35    1
    26    40    39    1
    27    35    34    1
    28    35    38    1
    29   100    99    1
    30    95    94    2
    31    39    38    1
    32    99    98    1
    33    94    98   am
    34    94    93    1
    35   159   158    2
    36   164   162   ar
    37   164   166   ar
    38   162   161   ar
    39    79    77    1
    40    92    93    1
    41    93    96    1
    42   166   165   ar
    43    91    90    2
    44   158   157    1
    45   157   160    1
    46   157   156    1
    47   161   160    1
    48   161   163   ar
    49   125   124    1
    50    77    78    1
    51    77    76    2
    52    90    89    1
    53   165   163   ar
    54    96    97    1
    55    28    27    2
    56   124   123    1
    57    76    75    1
    58    72    71    2
    59    89    88    1
    60   123   122    1
    61    27    26    1
    62    83    82    2
    63    30    31    1
    64    30    29    1
    65   122   121    1
    66    75    74    1
    67   154   153    2
    68    71    70    1
    69   151   150    2
    70    32    31   ar
    71    23    22    2
    72    88    82   am
    73    82    81    1
    74    26    29    1
    75    26    25    1
    76    31    33   ar
    77    73    74    1
    78    73    70    1
    79   117   118    1
    80    70    69    1
    81    80    81    1
    82    81    84    1
    83   121   118    1
    84   153   152    1
    85   153   155   am
    86    22    25   am
    87    22    21    1
    88   150   149    1
    89   152   149    1
    90   118   119    1
    91   149   148    1
    92    65    64    2
    93    87    85    1
    94    69    64   am
    95    84    85    1
    96    21    24    1
    97    21    20    1
    98    64    63    1
    99   119   120    2
   100    85    86    1
   101    19    17   ar
   102    19    18   ar
   103   136   134    1
   104    53    52    2
   105    17    15   ar
   106    13    12    2
   107    18    16   ar
   108    67    66    1
   109    63    62    1
   110    63    66    1
   111    52    62   am
   112    52    51    1
   113   140   139    2
   114   134   135    1
   115   134   133    2
   116   146   144   ar
   117   146   147   ar
   118   144   142   ar
   119    66    68    1
   120    15    16   ar
   121    15    14    1
   122    12    11    1
   123    51    50    1
   124    51    54    1
   125   133   132    1
   126   147   145   ar
   127   139   138    1
   128   138   141    1
   129   138   137    1
   130    11    14    1
   131    11    10    1
   132   142   141    1
   133   142   143   ar
   134    56    58   ar
   135    56    55   ar
   136   126   127    1
   137     9     8    1
   138    58    60   ar
   139    54    55    1
   140   132   131    1
   141    55    57   ar
   142   131   130    1
   143   145   143   ar
   144    60    61    1
   145    60    59   ar
   146    57    59   ar
   147     8     7    1
   148   130   127    1
   149   127   128    1
   150     7     6    1
   151     6     5    1
   152   128   129    2
   153     5     2    1
   154     2     3    1
   155     2     1    1
   156     4     3    2
