@<TRIPOS>MOLECULE
tmp/1wzeB00.pdb
 128 118 0 0 0
SMALL
GASTEIGER

@<TRIPOS>ATOM
      1  N         45.2340   30.4820   38.4480 N.3    11  GLY11      -0.1225
      2  CA        44.8220   29.6840   37.3000 C.3    11  GLY11       0.1811
      3  C         43.3100   29.7620   37.1710 C.2    11  GLY11       0.2280
      4  O         42.6510   28.8210   36.7290 O.2    11  GLY11      -0.2866
      5  N         41.3840   28.8540   33.8690 N.3    14  GLY14      -0.1210
      6  CA        41.4810   27.4980   33.3540 C.3    14  GLY14       0.1956
      7  C         40.2350   26.6630   33.6050 C.2    14  GLY14       0.2612
      8  O         39.2680   27.1430   34.1970 O.2    14  GLY14      -0.2717
      9  N         40.2630   25.4060   33.1620 N.am   15  GLN15      -0.1965
     10  CA        39.1330   24.4970   33.3140 C.3    15  GLN15       0.1733
     11  C         38.7140   24.2620   34.7630 C.2    15  GLN15       0.2616
     12  O         37.5360   24.3530   35.0970 O.2    15  GLN15      -0.2715
     13  CB        39.4420   23.1430   32.6650 C.3    15  GLN15       0.0408
     14  CG        39.8310   23.2140   31.1950 C.3    15  GLN15       0.0908
     15  CD        40.0360   21.8390   30.5820 C.2    15  GLN15       0.2608
     16  OE1       40.6320   21.7090   29.5170 O.2    15  GLN15      -0.2717
     17  NE2       39.5310   20.8050   31.2520 N.am   15  GLN15      -0.0878
     18  N         39.6690   23.9330   35.6220 N.am   16  ILE16      -0.1963
     19  CA        39.3420   23.6970   37.0190 C.3    16  ILE16       0.1727
     20  C         38.7290   24.9620   37.6160 C.2    16  ILE16       0.2616
     21  O         37.7230   24.9000   38.3290 O.2    16  ILE16      -0.2715
     22  CB        40.5950   23.2890   37.8200 C.3    16  ILE16       0.0290
     23  CG1       40.9690   21.8450   37.4690 C.3    16  ILE16       0.0022
     24  CG2       40.3420   23.4540   39.3160 C.3    16  ILE16       0.0023
     25  CD1       42.1740   21.3150   38.2300 C.3    16  ILE16       0.0001
     26  N         39.3340   26.1070   37.3120 N.am   17  GLY17      -0.1955
     27  CA        38.8200   27.3620   37.8190 C.3    17  GLY17       0.1869
     28  C         37.3750   27.5800   37.4170 C.2    17  GLY17       0.2309
     29  O         36.5490   28.0050   38.2340 O.2    17  GLY17      -0.2863
     30  N         45.8050   26.7600   41.8050 N.3    87  VAL87      -0.1231
     31  CA        45.4640   25.8470   40.7250 C.3    87  VAL87       0.1692
     32  C         46.3890   26.0350   39.5310 C.2    87  VAL87       0.2593
     33  O         46.7070   25.0810   38.8260 O.2    87  VAL87      -0.2718
     34  CB        44.0040   26.0620   40.2550 C.3    87  VAL87       0.0266
     35  CG1       43.6590   25.0500   39.1680 C.3    87  VAL87       0.0020
     36  CG2       43.0410   25.9290   41.4390 C.3    87  VAL87       0.0020
     37  N         46.8200   27.2730   39.3120 N.am   88  GLY88      -0.1942
     38  CA        47.7000   27.5620   38.1980 C.3    88  GLY88       0.2014
     39  C         49.1210   27.0700   38.3940 C.2    88  GLY88       0.2639
     40  O         49.7520   27.3410   39.4130 O.2    88  GLY88      -0.2714
     41  N         49.6210   26.3280   37.4130 N.am   89  ALA89      -0.1963
     42  CA        50.9800   25.8090   37.4540 C.3    89  ALA89       0.1728
     43  C         51.5630   25.9130   36.0470 C.2    89  ALA89       0.2616
     44  O         50.9150   26.4420   35.1490 O.2    89  ALA89      -0.2715
     45  CB        50.9780   24.3600   37.9290 C.3    89  ALA89       0.0334
     46  N         52.7790   25.4130   35.8590 N.am   90  ALA90      -0.1977
     47  CA        53.4280   25.4590   34.5520 C.3    90  ALA90       0.1597
     48  C         52.5330   24.8630   33.4660 C.2    90  ALA90       0.2287
     49  O         51.9780   23.7800   33.6350 O.2    90  ALA90      -0.2864
     50  CB        54.7560   24.7080   34.6040 C.3    90  ALA90       0.0319
     51  N         46.7390   22.7260   43.9480 N.3   129  VAL129     -0.1231
     52  CA        46.0760   21.8040   43.0440 C.3   129  VAL129      0.1692
     53  C         46.9480   21.5950   41.8120 C.2   129  VAL129      0.2593
     54  O         47.0760   20.4770   41.3210 O.2   129  VAL129     -0.2718
     55  CB        44.6900   22.3430   42.6050 C.3   129  VAL129      0.0266
     56  CG1       44.1210   21.4730   41.4990 C.3   129  VAL129      0.0020
     57  CG2       43.7360   22.3590   43.7970 C.3   129  VAL129      0.0020
     58  N         47.5520   22.6780   41.3250 N.am  130  GLY130     -0.1942
     59  CA        48.4040   22.5900   40.1500 C.3   130  GLY130      0.2014
     60  C         49.5100   21.5690   40.3180 C.2   130  GLY130      0.2638
     61  O         50.2290   21.5840   41.3260 O.2   130  GLY130     -0.2714
     62  N         49.6490   20.6820   39.3330 N.am  131  ASN131     -0.1972
     63  CA        50.6610   19.6300   39.3710 C.3   131  ASN131      0.1688
     64  C         52.0640   20.0550   38.9520 C.2   131  ASN131      0.2292
     65  O         52.2380   20.9730   38.1540 O.2   131  ASN131     -0.2864
     66  CB        50.2270   18.4440   38.5020 C.3   131  ASN131      0.1181
     67  CG        49.1730   17.5900   39.1710 C.2   131  ASN131      0.2629
     68  OD1       49.3100   17.2210   40.3390 O.2   131  ASN131     -0.2716
     69  ND2       48.1220   17.2530   38.4310 N.am  131  ASN131     -0.0877
     70  N         51.3720   18.6690   42.3040 N.3   133  ALA133     -0.1245
     71  CA        50.8550   19.2180   43.5550 C.3   133  ALA133      0.1562
     72  C         51.7250   19.1300   44.8100 C.2   133  ALA133      0.2260
     73  O         52.0470   20.1550   45.4080 O.2   133  ALA133     -0.2867
     74  CB        49.4790   18.6180   43.8410 C.3   133  ALA133      0.0290
     75  N         46.5370   18.5620   47.0990 N.3   155  MET155     -0.1245
     76  CA        45.3170   17.7800   46.9680 C.3   155  MET155      0.1570
     77  C         45.4010   16.3270   46.5070 C.2   155  MET155      0.2261
     78  O         45.9060   16.0230   45.4240 O.2   155  MET155     -0.2867
     79  CB        44.3250   18.5290   46.0620 C.3   155  MET155      0.0387
     80  CG        42.9220   17.9240   46.0310 C.3   155  MET155      0.0595
     81  SD        41.7360   18.8990   45.0480 S.3   155  MET155     -0.1393
     82  CE        42.2680   18.4900   43.3760 C.3   155  MET155      0.0692
     83  N         40.8100   14.1340   45.3560 N.3   158  LEU158     -0.1245
     84  CA        40.1630   13.5440   44.1840 C.3   158  LEU158      0.1561
     85  C         40.4570   12.0450   44.1630 C.2   158  LEU158      0.2260
     86  O         39.5630   11.2260   43.9190 O.2   158  LEU158     -0.2867
     87  CB        40.6630   14.1960   42.8910 C.3   158  LEU158      0.0270
     88  CG        40.0140   13.6790   41.5960 C.3   158  LEU158      0.0019
     89  CD1       38.4970   13.7480   41.6980 C.3   158  LEU158      0.0001
     90  CD2       40.4970   14.5120   40.4190 C.3   158  LEU158      0.0001
     91  N         37.6860    9.2590   44.4240 N.3   162  ARG162     -0.1245
     92  CA        37.6630    8.2490   43.3750 C.3   162  ARG162      0.1563
     93  C         37.6870    6.8590   44.0070 C.2   162  ARG162      0.2260
     94  O         36.9770    5.9550   43.5660 O.2   162  ARG162     -0.2867
     95  CB        38.8670    8.4410   42.4440 C.3   162  ARG162      0.0307
     96  CG        38.7160    9.6370   41.4990 C.3   162  ARG162      0.0489
     97  CD        39.9940    9.9360   40.7370 C.3   162  ARG162      0.2205
     98  NE        39.7500   10.8340   39.6090 N.pl3 162  ARG162     -0.0865
     99  CZ        40.7050   11.4560   38.9240 C.cat 162  ARG162      0.5346
    100  NH1       41.9810   11.2880   39.2520 N.pl3 162  ARG162      0.1354
    101  NH2       40.3850   12.2310   37.8940 N.pl3 162  ARG162      0.1354
    102  N         50.3530   12.4830   44.8130 N.3   187  HIS187     -0.1241
    103  CA        49.2380   12.4890   43.8760 C.3   187  HIS187      0.1621
    104  C         49.9130   12.1400   42.5580 C.2   187  HIS187      0.2264
    105  O         50.2660   13.0160   41.7670 O.2   187  HIS187     -0.2867
    106  CB        48.5830   13.8670   43.7690 C.3   187  HIS187      0.0745
    107  CG        47.6010   13.9650   42.6440 C.ar  187  HIS187      0.0817
    108  ND1       46.4660   13.1850   42.5810 N.ar  187  HIS187     -0.2268
    109  CD2       47.6210   14.6920   41.5010 C.ar  187  HIS187      0.1154
    110  CE1       45.8320   13.4240   41.4470 C.ar  187  HIS187      0.1986
    111  NE2       46.5110   14.3340   40.7730 N.ar  187  HIS187     -0.2212
    112  N         40.2860   17.1140   30.5980 N.3   236  SER236     -0.1202
    113  CA        40.6150   16.7510   31.9770 C.3   236  SER236      0.2020
    114  C         39.3950   16.7080   32.8920 C.2   236  SER236      0.2619
    115  O         38.3290   17.2210   32.5500 O.2   236  SER236     -0.2717
    116  CB        41.6430   17.7340   32.5420 C.3   236  SER236      0.2103
    117  OG        41.1230   19.0530   32.5620 O.3   236  SER236     -0.2182
    118  N         39.5620   16.1010   34.0650 N.am  237  SER237     -0.1951
    119  CA        38.4760   15.9720   35.0350 C.3   237  SER237      0.1924
    120  C         38.3260   17.2290   35.8920 C.2   237  SER237      0.2314
    121  O         38.4570   17.1770   37.1210 O.2   237  SER237     -0.2863
    122  CB        38.7380   14.7640   35.9380 C.3   237  SER237      0.2116
    123  OG        39.9630   14.9180   36.6280 O.3   237  SER237     -0.2180
    124  N         37.6150   17.5750   39.9640 N.3   241  ALA241     -0.1245
    125  CA        38.8310   18.0760   40.6060 C.3   241  ALA241      0.1562
    126  C         38.4460   19.3150   41.4110 C.2   241  ALA241      0.2260
    127  O         38.9540   19.5380   42.5110 O.2   241  ALA241     -0.2867
    128  CB        39.8790   18.4420   39.5600 C.3   241  ALA241      0.0290
@<TRIPOS>BOND
     1    16    15    2
     2    15    14    1
     3    15    17   am
     4   112   113    1
     5    14    13    1
     6   113   116    1
     7   113   114    1
     8   116   117    1
     9   115   114    2
    10    13    10    1
    11   114   118   am
    12     9    10    1
    13     9     7   am
    14    10    11    1
    15     6     7    1
    16     6     5    1
    17    48    49    2
    18    48    47    1
    19     7     8    2
    20   118   119    1
    21    47    50    1
    22    47    46    1
    23    11    12    2
    24    11    18   am
    25   119   120    1
    26   119   122    1
    27    44    43    2
    28    18    19    1
    29    46    43   am
    30   120   121    2
    31   122   123    1
    32    43    42    1
    33     4     3    2
    34    19    20    1
    35    19    22    1
    36     3     2    1
    37     2     1    1
    38    26    20   am
    39    26    27    1
    40    41    42    1
    41    41    39   am
    42    28    27    1
    43    28    29    2
    44    42    45    1
    45    23    22    1
    46    23    25    1
    47    20    21    2
    48    22    24    1
    49   101    99    1
    50    65    64    2
    51    38    39    1
    52    38    37    1
    53    39    40    2
    54    69    67   am
    55    66    67    1
    56    66    63    1
    57    33    32    2
    58    99   100    1
    59    99    98    2
    60    64    63    1
    61    35    34    1
    62    67    68    2
    63    37    32   am
    64    62    63    1
    65    62    60   am
    66    32    31    1
    67   128   125    1
    68    98    97    1
    69   124   125    1
    70    59    60    1
    71    59    58    1
    72    34    31    1
    73    34    36    1
    74    60    61    2
    75    90    88    1
    76   125   126    1
    77    31    30    1
    78    97    96    1
    79   111   110   ar
    80   111   109   ar
    81    54    53    2
    82    58    53   am
    83   126   127    2
    84   110   108   ar
    85    96    95    1
    86    56    55    1
    87   109   107   ar
    88    88    89    1
    89    88    87    1
    90   105   104    2
    91    53    52    1
    92    70    71    1
    93    95    92    1
    94   104   103    1
    95   108   107   ar
    96    55    52    1
    97    55    57    1
    98   107   106    1
    99    87    84    1
   100    52    51    1
   101    92    93    1
   102    92    91    1
   103    82    81    1
   104    71    74    1
   105    71    72    1
   106    94    93    2
   107   106   103    1
   108   103   102    1
   109    86    85    2
   110    85    84    1
   111    84    83    1
   112    72    73    2
   113    81    80    1
   114    78    77    2
   115    80    79    1
   116    79    76    1
   117    77    76    1
   118    76    75    1
