@<TRIPOS>MOLECULE
tmp/1wzfA00.pdb
 157 148 0 0 0
SMALL
GASTEIGER

@<TRIPOS>ATOM
      1  N          2.4030   12.8900   46.2580 N.3     7  LYS7       -0.1245
      2  CA         2.3210   13.9820   45.2890 C.3     7  LYS7        0.1561
      3  C          3.6740   14.6530   45.0620 C.2     7  LYS7        0.2260
      4  O          4.1290   14.7890   43.9270 O.2     7  LYS7       -0.2867
      5  CB         1.3030   15.0270   45.7330 C.3     7  LYS7        0.0271
      6  CG        -0.1470   14.5630   45.5990 C.3     7  LYS7        0.0035
      7  CD        -1.1110   15.7460   45.6390 C.3     7  LYS7        0.0206
      8  CE        -1.5110   16.2040   44.2320 C.3     7  LYS7        0.1093
      9  NZ        -0.4160   16.9100   43.4970 N.3     7  LYS7       -0.1314
     10  N          5.6760   12.3310   37.2490 N.3    14  HIS14      -0.1241
     11  CA         4.2740   12.4970   36.9490 C.3    14  HIS14       0.1621
     12  C          4.0660   13.4740   35.7970 C.2    14  HIS14       0.2264
     13  O          3.2870   13.2300   34.8830 O.2    14  HIS14      -0.2867
     14  CB         3.5570   12.9960   38.1870 C.3    14  HIS14       0.0745
     15  CG         2.0820   13.1480   38.0100 C.ar   14  HIS14       0.0817
     16  ND1        1.2420   13.4270   39.0650 N.ar   14  HIS14      -0.2268
     17  CD2        1.2920   13.0280   36.9210 C.ar   14  HIS14       0.1154
     18  CE1       -0.0020   13.4960   38.6260 C.ar   14  HIS14       0.1986
     19  NE2        0.0010   13.2640   37.3260 N.ar   14  HIS14      -0.2212
     20  N          5.0820   11.9870   32.4500 N.3    17  ALA17      -0.1231
     21  CA         4.0680   11.0420   31.9620 C.3    17  ALA17       0.1694
     22  C          2.9640   11.7560   31.2140 C.2    17  ALA17       0.2591
     23  O          2.6250   11.3870   30.0840 O.2    17  ALA17      -0.2718
     24  CB         3.4690   10.2470   33.1350 C.3    17  ALA17       0.0304
     25  N          2.3980   12.7670   31.8810 N.am   18  GLU18      -0.1979
     26  CA         1.2810   13.5710   31.3960 C.3    18  GLU18       0.1602
     27  C          1.6030   14.3360   30.1080 C.2    18  GLU18       0.2287
     28  O          0.7200   14.5430   29.2510 O.2    18  GLU18      -0.2864
     29  CB         0.8810   14.5730   32.4800 C.3    18  GLU18       0.0415
     30  CG        -0.3340   14.1580   33.2810 C.3    18  GLU18       0.1163
     31  CD        -0.7260   15.1800   34.3550 C.2    18  GLU18       0.3649
     32  OE1       -0.7230   16.4050   34.0780 O.co2  18  GLU18      -0.2457
     33  OE2       -1.0430   14.7580   35.4980 O.co2  18  GLU18      -0.2457
     34  N          0.2520   11.4890   24.4080 N.3    23  MET23      -0.1245
     35  CA        -0.9120   11.9970   25.1480 C.3    23  MET23       0.1570
     36  C         -1.2350   13.4300   24.7590 C.2    23  MET23       0.2261
     37  O         -2.4020   13.7940   24.5970 O.2    23  MET23      -0.2867
     38  CB        -0.6860   11.8540   26.6510 C.3    23  MET23       0.0387
     39  CG        -1.8410   12.2320   27.5280 C.3    23  MET23       0.0595
     40  SD        -3.3810   11.2600   27.3000 S.3    23  MET23      -0.1393
     41  CE        -2.7470    9.6830   26.8590 C.3    23  MET23       0.0692
     42  N         -4.7430   14.4640   23.0740 N.3    27  LEU27      -0.1245
     43  CA        -5.6380   15.4330   23.7050 C.3    27  LEU27       0.1561
     44  C         -5.8820   16.6760   22.8740 C.2    27  LEU27       0.2260
     45  O         -6.8700   17.3430   23.0760 O.2    27  LEU27      -0.2867
     46  CB        -5.1380   15.7900   25.1010 C.3    27  LEU27       0.0270
     47  CG        -5.0840   14.6010   26.0760 C.3    27  LEU27       0.0019
     48  CD1       -4.4430   14.9960   27.4090 C.3    27  LEU27       0.0001
     49  CD2       -6.5260   14.0280   26.2640 C.3    27  LEU27       0.0001
     50  N         -2.4500    3.7970   43.5580 N.3   124  TYR124     -0.1227
     51  CA        -2.5020    5.2680   43.6250 C.3   124  TYR124      0.1736
     52  C         -2.2720    5.8840   42.2190 C.2   124  TYR124      0.2595
     53  O         -3.1290    6.6220   41.6850 O.2   124  TYR124     -0.2718
     54  CB        -1.4870    5.7460   44.6560 C.3   124  TYR124      0.0548
     55  CG        -1.1460    7.2170   44.5670 C.ar  124  TYR124     -0.0200
     56  CD1       -2.0080    8.1730   45.1010 C.ar  124  TYR124     -0.0009
     57  CD2        0.0320    7.6580   43.9330 C.ar  124  TYR124     -0.0009
     58  CE1       -1.7030    9.5110   45.0390 C.ar  124  TYR124      0.0417
     59  CE2        0.3400    9.0250   43.8650 C.ar  124  TYR124      0.0417
     60  CZ        -0.5490    9.9260   44.4200 C.ar  124  TYR124      0.1957
     61  OH        -0.2990   11.2700   44.4020 O.3   124  TYR124     -0.2866
     62  N         -1.1510    5.5360   41.6010 N.am  125  VAL125     -0.1966
     63  CA        -0.8420    6.0530   40.2840 C.3   125  VAL125      0.1727
     64  C         -2.0120    5.8690   39.2690 C.2   125  VAL125      0.2616
     65  O         -2.4730    6.8330   38.6560 O.2   125  VAL125     -0.2715
     66  CB         0.5310    5.5310   39.7610 C.3   125  VAL125      0.0290
     67  CG1        0.7470    5.9440   38.2990 C.3   125  VAL125      0.0023
     68  CG2        1.6910    6.0700   40.5960 C.3   125  VAL125      0.0023
     69  N         -2.5430    4.6530   39.1340 N.am  126  ARG126     -0.1977
     70  CA        -3.5530    4.4020   38.1370 C.3   126  ARG126      0.1597
     71  C         -4.9100    4.9550   38.5290 C.2   126  ARG126      0.2287
     72  O         -5.4400    5.8130   37.8040 O.2   126  ARG126     -0.2864
     73  CB        -3.6600    2.9130   37.7500 C.3   126  ARG126      0.0334
     74  CG        -2.5600    2.4400   36.7310 C.3   126  ARG126      0.0492
     75  CD        -2.3540    3.3450   35.4880 C.3   126  ARG126      0.2205
     76  NE        -3.6030    3.7410   34.8280 N.pl3 126  ARG126     -0.0865
     77  CZ        -3.6730    4.3510   33.6380 C.cat 126  ARG126      0.5346
     78  NH1       -2.5700    4.6520   32.9620 N.pl3 126  ARG126      0.1354
     79  NH2       -4.8600    4.6760   33.1240 N.pl3 126  ARG126      0.1354
     80  N         -6.1260    6.8470   41.0650 N.3   128  LEU128     -0.1231
     81  CA        -6.3110    8.2660   41.3880 C.3   128  LEU128      0.1693
     82  C         -6.1080    9.1660   40.1580 C.2   128  LEU128      0.2592
     83  O         -6.6920   10.2340   40.0630 O.2   128  LEU128     -0.2718
     84  CB        -5.4730    8.6860   42.5980 C.3   128  LEU128      0.0284
     85  CG        -5.9090    9.9670   43.3030 C.3   128  LEU128      0.0019
     86  CD1       -7.4030   10.0210   43.5960 C.3   128  LEU128      0.0001
     87  CD2       -5.1040   10.1580   44.5740 C.3   128  LEU128      0.0001
     88  N         -5.2970    8.7140   39.2140 N.am  129  GLY129     -0.1957
     89  CA        -5.2470    9.3140   37.8950 C.3   129  GLY129      0.1869
     90  C         -6.5720    9.1830   37.1630 C.2   129  GLY129      0.2309
     91  O         -7.0360   10.1590   36.5620 O.2   129  GLY129     -0.2863
     92  N         -9.1890   11.4010   38.8710 N.3   132  SER132     -0.1202
     93  CA        -8.8660   12.8290   38.8240 C.3   132  SER132      0.2020
     94  C         -9.0030   13.4440   37.4360 C.2   132  SER132      0.2619
     95  O         -9.5220   14.5710   37.2970 O.2   132  SER132     -0.2717
     96  CB        -7.4360   13.0590   39.2890 C.3   132  SER132      0.2103
     97  OG        -7.3190   12.8180   40.6730 O.3   132  SER132     -0.2182
     98  N         -8.4660   12.7550   36.4350 N.am  133  GLY133     -0.1956
     99  CA        -8.4000   13.3040   35.0960 C.3   133  GLY133      0.1869
    100  C         -9.1450   12.5290   34.0280 C.2   133  GLY133      0.2309
    101  O         -9.1100   12.8890   32.8510 O.2   133  GLY133     -0.2863
    102  N        -11.7670   14.5390   32.0210 N.3   136  VAL136     -0.1231
    103  CA       -11.1270   15.3600   31.0070 C.3   136  VAL136      0.1692
    104  C        -10.8160   14.4940   29.7500 C.2   136  VAL136      0.2591
    105  O        -11.1020   14.8870   28.5950 O.2   136  VAL136     -0.2718
    106  CB        -9.8150   15.9990   31.5620 C.3   136  VAL136      0.0266
    107  CG1       -9.0340   16.7460   30.4530 C.3   136  VAL136      0.0020
    108  CG2      -10.1460   16.9340   32.7230 C.3   136  VAL136      0.0020
    109  N        -10.2330   13.3250   29.9770 N.am  137  ILE137     -0.1980
    110  CA        -9.8700   12.4690   28.8440 C.3   137  ILE137      0.1595
    111  C        -11.1100   11.9920   28.0970 C.2   137  ILE137      0.2287
    112  O        -11.1550   12.1110   26.8770 O.2   137  ILE137     -0.2864
    113  CB        -8.9820   11.2740   29.2440 C.3   137  ILE137      0.0276
    114  CG1       -7.6400   11.8210   29.7390 C.3   137  ILE137      0.0022
    115  CG2       -8.7470   10.3550   28.0250 C.3   137  ILE137      0.0022
    116  CD1       -6.8340   10.8320   30.5010 C.3   137  ILE137      0.0001
    117  N         -7.5370    9.7310   49.6280 N.3   171  ARG171     -0.1245
    118  CA        -6.3510   10.3630   50.2300 C.3   171  ARG171      0.1563
    119  C         -6.2620   10.1230   51.7600 C.2   171  ARG171      0.2260
    120  O         -5.1910    9.8220   52.2830 O.2   171  ARG171     -0.2867
    121  CB        -6.2780   11.8670   49.8980 C.3   171  ARG171      0.0307
    122  CG        -5.9980   12.1850   48.4270 C.3   171  ARG171      0.0489
    123  CD        -6.2040   13.6960   48.1350 C.3   171  ARG171      0.2205
    124  NE        -6.8330   13.9390   46.8280 N.pl3 171  ARG171     -0.0865
    125  CZ        -6.1810   13.9330   45.6710 C.cat 171  ARG171      0.5346
    126  NH1       -4.8680   13.7120   45.6190 N.pl3 171  ARG171      0.1354
    127  NH2       -6.8380   14.1490   44.5560 N.pl3 171  ARG171      0.1354
    128  N          4.8450    5.7730   37.5810 N.3   195  PHE195     -0.1241
    129  CA         4.7500    6.8730   36.6400 C.3   195  PHE195      0.1605
    130  C          5.6790    6.6930   35.4520 C.2   195  PHE195      0.2264
    131  O          5.2790    6.9240   34.3160 O.2   195  PHE195     -0.2867
    132  CB         4.9920    8.2020   37.3470 C.3   195  PHE195      0.0534
    133  CG         3.7600    8.7780   37.9720 C.ar  195  PHE195     -0.0203
    134  CD1        3.6570    8.9050   39.3690 C.ar  195  PHE195     -0.0042
    135  CD2        2.6880    9.1810   37.1700 C.ar  195  PHE195     -0.0042
    136  CE1        2.4830    9.4690   39.9650 C.ar  195  PHE195     -0.0003
    137  CE2        1.5240    9.7400   37.7440 C.ar  195  PHE195     -0.0003
    138  CZ         1.4280    9.8770   39.1540 C.ar  195  PHE195     -0.0000
    139  N          4.2410    4.1780   33.0100 N.3   198  ASN198     -0.1240
    140  CA         3.1760    4.7180   32.1770 C.3   198  ASN198      0.1653
    141  C          3.6560    5.6370   31.0810 C.2   198  ASN198      0.2266
    142  O          3.0770    5.6460   29.9830 O.2   198  ASN198     -0.2867
    143  CB         2.1020    5.4040   32.9950 C.3   198  ASN198      0.1155
    144  CG         1.1710    4.3950   33.6210 C.2   198  ASN198      0.2627
    145  OD1        0.1550    4.0030   33.0080 O.2   198  ASN198     -0.2716
    146  ND2        1.5470    3.8950   34.8160 N.am  198  ASN198     -0.0877
    147  N          3.1380    5.3020   26.9530 N.3   202  PHE202     -0.1241
    148  CA         2.7740    6.3560   25.9940 C.3   202  PHE202      0.1605
    149  C          3.8090    6.4810   24.8830 C.2   202  PHE202      0.2264
    150  O          3.4480    6.5750   23.7220 O.2   202  PHE202     -0.2867
    151  CB         2.5910    7.7020   26.6730 C.3   202  PHE202      0.0534
    152  CG         1.4820    7.7280   27.6700 C.ar  202  PHE202     -0.0203
    153  CD1        0.2930    7.0200   27.4450 C.ar  202  PHE202     -0.0042
    154  CD2        1.6070    8.4830   28.8390 C.ar  202  PHE202     -0.0042
    155  CE1       -0.7230    7.0220   28.3980 C.ar  202  PHE202     -0.0003
    156  CE2        0.5910    8.5230   29.7770 C.ar  202  PHE202     -0.0003
    157  CZ        -0.5750    7.8080   29.5650 C.ar  202  PHE202     -0.0000
@<TRIPOS>BOND
     1    44    45    2
     2    44    43    1
     3    42    43    1
     4    43    46    1
     5   150   149    2
     6    34    35    1
     7    37    36    2
     8    36    35    1
     9   149   148    1
    10    46    47    1
    11    35    38    1
    12   148   151    1
    13   148   147    1
    14    47    49    1
    15    47    48    1
    16    38    39    1
    17   151   152    1
    18    41    40    1
    19   112   111    2
    20    40    39    1
    21   153   152   ar
    22   153   155   ar
    23   152   154   ar
    24   115   113    1
    25   111   110    1
    26   155   157   ar
    27   105   104    2
    28   154   156   ar
    29   110   113    1
    30   110   109    1
    31   113   114    1
    32    28    27    2
    33   157   156   ar
    34   114   116    1
    35   104   109   am
    36   104   103    1
    37   142   141    2
    38    23    22    2
    39    27    26    1
    40   107   106    1
    41   103   106    1
    42   103   102    1
    43   141   140    1
    44    22    25   am
    45    22    21    1
    46    26    25    1
    47    26    29    1
    48   106   108    1
    49    21    20    1
    50    21    24    1
    51   140   143    1
    52   140   139    1
    53    29    30    1
    54   101   100    2
    55    78    77    1
    56   143   144    1
    57   145   144    2
    58    79    77    1
    59    30    31    1
    60   144   146   am
    61    77    76    2
    62   100    99    1
    63    32    31   ar
    64   131   130    2
    65    31    33   ar
    66    76    75    1
    67    13    12    2
    68    99    98    1
    69   130   129    1
    70    75    74    1
    71    12    11    1
    72    98    94   am
    73    91    90    2
    74   129   132    1
    75   129   128    1
    76    74    73    1
    77    17    19   ar
    78    17    15   ar
    79    11    10    1
    80    11    14    1
    81    90    89    1
    82   135   137   ar
    83   135   133   ar
    84    95    94    2
    85    19    18   ar
    86   132   133    1
    87    94    93    1
    88   137   138   ar
    89    73    70    1
    90    72    71    2
    91    89    88    1
    92   133   134   ar
    93    15    14    1
    94    15    16   ar
    95    70    71    1
    96    70    69    1
    97    67    66    1
    98    18    16   ar
    99    65    64    2
   100    93    92    1
   101    93    96    1
   102    69    64   am
   103   138   136   ar
   104    88    82   am
   105    64    63    1
   106    96    97    1
   107   134   136   ar
   108    66    63    1
   109    66    68    1
   110    83    82    2
   111    82    81    1
   112    63    62    1
   113    80    81    1
   114    81    84    1
   115    62    52   am
   116    53    52    2
   117    52    51    1
   118    84    85    1
   119    85    86    1
   120    85    87    1
   121     9     8    1
   122    50    51    1
   123    51    54    1
   124    59    57   ar
   125    59    60   ar
   126     4     3    2
   127    57    55   ar
   128     8     7    1
   129    61    60    1
   130    60    58   ar
   131   127   125    1
   132    55    54    1
   133    55    56   ar
   134    58    56   ar
   135     3     2    1
   136     2     5    1
   137     2     1    1
   138     6     7    1
   139     6     5    1
   140   126   125    1
   141   125   124    2
   142   124   123    1
   143   123   122    1
   144   122   121    1
   145   117   118    1
   146   121   118    1
   147   118   119    1
   148   119   120    2
