@<TRIPOS>MOLECULE
tmp/1wzgA00.pdb
 140 133 0 0 0
SMALL
GASTEIGER

@<TRIPOS>ATOM
      1  N          5.0610   12.1940   37.1640 N.3    14  HIS14      -0.1241
      2  CA         3.6700   12.4150   36.8320 C.3    14  HIS14       0.1621
      3  C          3.5490   13.4220   35.6890 C.2    14  HIS14       0.2264
      4  O          2.8270   13.1720   34.7240 O.2    14  HIS14      -0.2867
      5  CB         2.9190   12.9380   38.0560 C.3    14  HIS14       0.0745
      6  CG         1.4400   13.0390   37.8690 C.ar   14  HIS14       0.0817
      7  ND1        0.5800   13.2890   38.9190 N.ar   14  HIS14      -0.2268
      8  CD2        0.6650   12.9280   36.7650 C.ar   14  HIS14       0.1154
      9  CE1       -0.6610   13.3240   38.4680 C.ar   14  HIS14       0.1986
     10  NE2       -0.6360   13.1140   37.1640 N.ar   14  HIS14      -0.2212
     11  N          4.6310   11.9640   32.3380 N.3    17  ALA17      -0.1231
     12  CA         3.7280   10.9680   31.7820 C.3    17  ALA17       0.1694
     13  C          2.5350   11.6460   31.1120 C.2    17  ALA17       0.2591
     14  O          2.1330   11.2690   30.0240 O.2    17  ALA17      -0.2718
     15  CB         3.2540   10.0270   32.8860 C.3    17  ALA17       0.0304
     16  N          2.0090   12.6660   31.7860 N.am   18  GLU18      -0.1979
     17  CA         0.7800   13.3510   31.4210 C.3    18  GLU18       0.1602
     18  C          1.0070   14.1780   30.1740 C.2    18  GLU18       0.2287
     19  O          0.1080   14.2990   29.3110 O.2    18  GLU18      -0.2864
     20  CB         0.3560   14.2550   32.5780 C.3    18  GLU18       0.0415
     21  CG        -1.1160   14.1890   32.8890 C.3    18  GLU18       0.1163
     22  CD        -1.5040   15.0470   34.0960 C.2    18  GLU18       0.3649
     23  OE1       -1.8470   14.4860   35.1650 O.co2  18  GLU18      -0.2457
     24  OE2       -1.4650   16.2890   33.9830 O.co2  18  GLU18      -0.2457
     25  N         -5.3540   14.3890   23.2070 N.3    27  LEU27      -0.1245
     26  CA        -6.2760   15.3130   23.8920 C.3    27  LEU27       0.1561
     27  C         -6.5360   16.5850   23.1030 C.2    27  LEU27       0.2260
     28  O         -7.5500   17.2350   23.3140 O.2    27  LEU27      -0.2867
     29  CB        -5.8070   15.6380   25.3220 C.3    27  LEU27       0.0270
     30  CG        -5.7670   14.4530   26.3030 C.3    27  LEU27       0.0019
     31  CD1       -5.2120   14.8560   27.6810 C.3    27  LEU27       0.0001
     32  CD2       -7.1830   13.8620   26.4760 C.3    27  LEU27       0.0001
     33  N         -3.0380    3.8250   43.4370 N.3   124  TYR124     -0.1227
     34  CA        -3.0710    5.2720   43.4660 C.3   124  TYR124      0.1736
     35  C         -2.8590    5.8420   42.0510 C.2   124  TYR124      0.2595
     36  O         -3.6590    6.6280   41.5500 O.2   124  TYR124     -0.2718
     37  CB        -1.9930    5.7520   44.4300 C.3   124  TYR124      0.0548
     38  CG        -1.7020    7.2290   44.3800 C.ar  124  TYR124     -0.0200
     39  CD1       -2.4230    8.1150   45.1650 C.ar  124  TYR124     -0.0009
     40  CD2       -0.6920    7.7430   43.5500 C.ar  124  TYR124     -0.0009
     41  CE1       -2.1530    9.4820   45.1300 C.ar  124  TYR124      0.0417
     42  CE2       -0.4050    9.1240   43.5210 C.ar  124  TYR124      0.0417
     43  CZ        -1.1440    9.9690   44.3150 C.ar  124  TYR124      0.1957
     44  OH        -0.9070   11.3170   44.3270 O.3   124  TYR124     -0.2866
     45  N         -1.7960    5.4070   41.3940 N.am  125  VAL125     -0.1966
     46  CA        -1.4570    5.9610   40.0860 C.3   125  VAL125      0.1727
     47  C         -2.5830    5.7470   39.0720 C.2   125  VAL125      0.2616
     48  O         -3.0250    6.7000   38.4300 O.2   125  VAL125     -0.2715
     49  CB        -0.1030    5.4280   39.5610 C.3   125  VAL125      0.0290
     50  CG1        0.1150    5.8340   38.0840 C.3   125  VAL125      0.0023
     51  CG2        1.0300    5.9530   40.4320 C.3   125  VAL125      0.0023
     52  N         -3.0570    4.5110   38.9400 N.am  126  ARG126     -0.1977
     53  CA        -4.1410    4.2420   37.9840 C.3   126  ARG126      0.1597
     54  C         -5.5120    4.7890   38.4470 C.2   126  ARG126      0.2287
     55  O         -6.0940    5.6420   37.7590 O.2   126  ARG126     -0.2864
     56  CB        -4.2190    2.7580   37.5770 C.3   126  ARG126      0.0334
     57  CG        -3.0710    2.2810   36.6350 C.3   126  ARG126      0.0492
     58  CD        -2.9130    3.1700   35.3840 C.3   126  ARG126      0.2205
     59  NE        -4.1920    3.5930   34.7650 N.pl3 126  ARG126     -0.0865
     60  CZ        -4.2620    4.2770   33.6180 C.cat 126  ARG126      0.5346
     61  NH1       -3.1440    4.5780   32.9530 N.pl3 126  ARG126      0.1354
     62  NH2       -5.4490    4.6410   33.1330 N.pl3 126  ARG126      0.1354
     63  N         -6.7630    6.6750   41.1330 N.3   128  LEU128     -0.1231
     64  CA        -6.9180    8.0900   41.4630 C.3   128  LEU128      0.1693
     65  C         -6.8040    8.9650   40.2050 C.2   128  LEU128      0.2592
     66  O         -7.4980    9.9660   40.0810 O.2   128  LEU128     -0.2718
     67  CB        -5.9650    8.5500   42.5680 C.3   128  LEU128      0.0284
     68  CG        -6.3580    9.9020   43.2050 C.3   128  LEU128      0.0019
     69  CD1       -7.8490    9.9690   43.6310 C.3   128  LEU128      0.0001
     70  CD2       -5.3980   10.2990   44.3460 C.3   128  LEU128      0.0001
     71  N         -5.9400    8.5680   39.2700 N.am  129  GLY129     -0.1957
     72  CA        -5.8610    9.2150   37.9580 C.3   129  GLY129      0.1869
     73  C         -7.1830    9.0990   37.2080 C.2   129  GLY129      0.2309
     74  O         -7.6860   10.0930   36.6740 O.2   129  GLY129     -0.2863
     75  N         -9.8430   11.2450   38.9050 N.3   132  SER132     -0.1202
     76  CA        -9.4680   12.6630   38.8580 C.3   132  SER132      0.2020
     77  C         -9.6340   13.2680   37.4740 C.2   132  SER132      0.2619
     78  O        -10.2450   14.3410   37.3260 O.2   132  SER132     -0.2717
     79  CB        -8.0030   12.8280   39.2830 C.3   132  SER132      0.2103
     80  OG        -7.8450   12.5300   40.6690 O.3   132  SER132     -0.2182
     81  N         -9.0430   12.6030   36.4770 N.am  133  GLY133     -0.1956
     82  CA        -8.9250   13.1470   35.1270 C.3   133  GLY133      0.1869
     83  C         -9.7960   12.4380   34.1010 C.2   133  GLY133      0.2309
     84  O         -9.8250   12.8320   32.9470 O.2   133  GLY133     -0.2863
     85  N        -12.4720   14.3530   32.0660 N.3   136  VAL136     -0.1231
     86  CA       -11.7910   15.2170   31.1100 C.3   136  VAL136      0.1692
     87  C        -11.4740   14.4140   29.8440 C.2   136  VAL136      0.2591
     88  O        -11.8690   14.8210   28.7250 O.2   136  VAL136     -0.2718
     89  CB       -10.5190   15.8830   31.7240 C.3   136  VAL136      0.0266
     90  CG1       -9.6460   16.5360   30.6350 C.3   136  VAL136      0.0020
     91  CG2      -10.9450   16.8840   32.7980 C.3   136  VAL136      0.0020
     92  N        -10.8140   13.2720   30.0250 N.am  137  ILE137     -0.1980
     93  CA       -10.4390   12.4290   28.8800 C.3   137  ILE137      0.1595
     94  C        -11.6940   11.9450   28.1620 C.2   137  ILE137      0.2287
     95  O        -11.7570   12.0070   26.9420 O.2   137  ILE137     -0.2864
     96  CB        -9.5600   11.2250   29.2700 C.3   137  ILE137      0.0276
     97  CG1       -8.2420   11.6980   29.9090 C.3   137  ILE137      0.0022
     98  CG2       -9.2510   10.3760   28.0440 C.3   137  ILE137      0.0022
     99  CD1       -7.2730   10.5330   30.2080 C.3   137  ILE137      0.0001
    100  N         -8.0750    9.6770   49.6280 N.3   171  ARG171     -0.1245
    101  CA        -6.8690   10.2870   50.2310 C.3   171  ARG171      0.1563
    102  C         -6.7550   10.0700   51.7480 C.2   171  ARG171      0.2260
    103  O         -5.6750    9.8060   52.2730 O.2   171  ARG171     -0.2867
    104  CB        -6.7230   11.7570   49.8310 C.3   171  ARG171      0.0307
    105  CG        -6.2000   11.8920   48.3860 C.3   171  ARG171      0.0489
    106  CD        -6.0590   13.3540   47.9390 C.3   171  ARG171      0.2205
    107  NE        -7.3700   13.9870   47.7960 N.pl3 171  ARG171     -0.0865
    108  CZ        -7.9900   14.1980   46.6320 C.cat 171  ARG171      0.5346
    109  NH1       -7.4270   13.8320   45.4900 N.pl3 171  ARG171      0.1354
    110  NH2       -9.1890   14.7790   46.6220 N.pl3 171  ARG171      0.1354
    111  N          4.2190    5.7220   37.4920 N.3   195  PHE195     -0.1241
    112  CA         4.1410    6.8470   36.5150 C.3   195  PHE195      0.1605
    113  C          5.0790    6.6570   35.3000 C.2   195  PHE195      0.2264
    114  O          4.6630    6.8620   34.1520 O.2   195  PHE195     -0.2867
    115  CB         4.3780    8.1950   37.2030 C.3   195  PHE195      0.0534
    116  CG         3.1670    8.7260   37.9290 C.ar  195  PHE195     -0.0203
    117  CD1        3.1860    8.9120   39.3070 C.ar  195  PHE195     -0.0042
    118  CD2        2.0150    9.0530   37.2270 C.ar  195  PHE195     -0.0042
    119  CE1        2.0870    9.4400   39.9860 C.ar  195  PHE195     -0.0003
    120  CE2        0.8810    9.5700   37.8960 C.ar  195  PHE195     -0.0003
    121  CZ         0.9160    9.7510   39.2740 C.ar  195  PHE195     -0.0000
    122  N          3.7140    4.1070   32.8330 N.3   198  ASN198     -0.1240
    123  CA         2.6300    4.6720   32.0370 C.3   198  ASN198      0.1653
    124  C          3.1450    5.6010   30.9500 C.2   198  ASN198      0.2266
    125  O          2.6370    5.5850   29.8410 O.2   198  ASN198     -0.2867
    126  CB         1.6050    5.3370   32.9350 C.3   198  ASN198      0.1155
    127  CG         0.6570    4.3190   33.5310 C.2   198  ASN198      0.2627
    128  OD1       -0.3110    3.8780   32.8580 O.2   198  ASN198     -0.2716
    129  ND2        0.9340    3.8980   34.7690 N.am  198  ASN198     -0.0877
    130  N          2.6100    5.2200   26.8150 N.3   202  PHE202     -0.1241
    131  CA         2.2060    6.2670   25.8420 C.3   202  PHE202      0.1605
    132  C          3.2300    6.4080   24.7430 C.2   202  PHE202      0.2264
    133  O          2.8660    6.6200   23.5800 O.2   202  PHE202     -0.2867
    134  CB         2.0410    7.6310   26.5110 C.3   202  PHE202      0.0534
    135  CG         0.9650    7.6660   27.5590 C.ar  202  PHE202     -0.0203
    136  CD1       -0.2240    6.9730   27.3770 C.ar  202  PHE202     -0.0042
    137  CD2        1.1190    8.4450   28.6980 C.ar  202  PHE202     -0.0042
    138  CE1       -1.2190    7.0060   28.3420 C.ar  202  PHE202     -0.0003
    139  CE2        0.1040    8.5030   29.6670 C.ar  202  PHE202     -0.0003
    140  CZ        -1.0590    7.7850   29.4830 C.ar  202  PHE202     -0.0000
@<TRIPOS>BOND
     1    27    28    2
     2    27    26    1
     3    25    26    1
     4   133   132    2
     5    26    29    1
     6   132   131    1
     7    29    30    1
     8   131   134    1
     9   131   130    1
    10    30    32    1
    11    30    31    1
    12   134   135    1
    13    95    94    2
    14   136   135   ar
    15   136   138   ar
    16   135   137   ar
    17    98    96    1
    18    94    93    1
    19   138   140   ar
    20   137   139   ar
    21    88    87    2
    22    93    96    1
    23    93    92    1
    24    96    97    1
    25    19    18    2
    26   140   139   ar
    27   125   124    2
    28    87    92   am
    29    87    86    1
    30    97    99    1
    31    14    13    2
    32    18    17    1
    33    90    89    1
    34   124   123    1
    35    86    89    1
    36    86    85    1
    37    13    12    1
    38    13    16   am
    39    17    16    1
    40    17    20    1
    41    89    91    1
    42    12    11    1
    43    12    15    1
    44   123   122    1
    45   123   126    1
    46    20    21    1
    47   128   127    2
    48    21    22    1
    49   126   127    1
    50    84    83    2
    51    61    60    1
    52    62    60    1
    53   127   129   am
    54    60    59    2
    55    24    22   ar
    56    22    23   ar
    57    83    82    1
    58   114   113    2
    59     4     3    2
    60    59    58    1
    61    82    81    1
    62   113   112    1
    63    58    57    1
    64     3     2    1
    65    81    77   am
    66   112   115    1
    67   112   111    1
    68    57    56    1
    69    74    73    2
    70     8    10   ar
    71     8     6   ar
    72     2     1    1
    73     2     5    1
    74    10     9   ar
    75   115   116    1
    76    73    72    1
    77   118   120   ar
    78   118   116   ar
    79    78    77    2
    80    77    76    1
    81    56    53    1
    82    55    54    2
    83     6     5    1
    84     6     7   ar
    85   120   121   ar
    86   116   117   ar
    87    72    71    1
    88    53    54    1
    89    53    52    1
    90    50    49    1
    91    48    47    2
    92     9     7   ar
    93    76    75    1
    94    76    79    1
    95    52    47   am
    96    47    46    1
    97    71    65   am
    98   121   119   ar
    99    79    80    1
   100   117   119   ar
   101    49    46    1
   102    49    51    1
   103    66    65    2
   104    46    45    1
   105    65    64    1
   106    63    64    1
   107    45    35   am
   108    64    67    1
   109    36    35    2
   110    35    34    1
   111    67    68    1
   112    68    69    1
   113    68    70    1
   114    33    34    1
   115    34    37    1
   116    42    40   ar
   117    42    43   ar
   118    40    38   ar
   119    43    44    1
   120    43    41   ar
   121    38    37    1
   122    38    39   ar
   123    41    39   ar
   124   109   108    1
   125   110   108    1
   126   108   107    2
   127   107   106    1
   128   106   105    1
   129   105   104    1
   130   100   101    1
   131   104   101    1
   132   101   102    1
   133   102   103    2
