@<TRIPOS>MOLECULE
tmp/1wziB00.pdb
 182 172 0 0 0
SMALL
GASTEIGER

@<TRIPOS>ATOM
      1  N        -10.2760   11.4360   38.9840 N.3    11  GLY11      -0.1210
      2  CA        -9.8140   12.1890   37.8260 C.3    11  GLY11       0.1956
      3  C         -8.3130   12.0120   37.6790 C.2    11  GLY11       0.2612
      4  O         -7.6160   12.8580   37.1170 O.2    11  GLY11      -0.2717
      5  N         -7.8240   10.8840   38.1820 N.am   12  ALA12      -0.1965
      6  CA        -6.4020   10.5600   38.1780 C.3    12  ALA12       0.1728
      7  C         -5.6760   10.5910   36.8310 C.2    12  ALA12       0.2616
      8  O         -4.4780   10.8520   36.7920 O.2    12  ALA12      -0.2715
      9  CB        -6.1870    9.2020   38.8580 C.3    12  ALA12       0.0334
     10  N         -6.3710   10.3230   35.7330 N.am   13  ALA13      -0.1963
     11  CA        -5.7040   10.3460   34.4310 C.3    13  ALA13       0.1728
     12  C         -5.7880   11.7090   33.7450 C.2    13  ALA13       0.2617
     13  O         -5.3250   11.8630   32.6180 O.2    13  ALA13      -0.2715
     14  CB        -6.2730    9.2630   33.5180 C.3    13  ALA13       0.0334
     15  N         -6.3650   12.6920   34.4350 N.am   14  GLY14      -0.1940
     16  CA        -6.4950   14.0300   33.8770 C.3    14  GLY14       0.2014
     17  C         -5.2720   14.9110   34.0850 C.2    14  GLY14       0.2639
     18  O         -4.2860   14.4910   34.6870 O.2    14  GLY14      -0.2714
     19  N         -5.3420   16.1460   33.5920 N.am   15  GLN15      -0.1963
     20  CA        -4.2280   17.0910   33.6940 C.3    15  GLN15       0.1733
     21  C         -3.7980   17.4110   35.1310 C.2    15  GLN15       0.2616
     22  O         -2.6130   17.3490   35.4560 O.2    15  GLN15      -0.2715
     23  CB        -4.5850   18.3930   32.9660 C.3    15  GLN15       0.0408
     24  CG        -5.2150   18.1820   31.5880 C.3    15  GLN15       0.0908
     25  CD        -5.6950   19.4800   30.9510 C.2    15  GLN15       0.2608
     26  OE1       -4.9880   20.0940   30.1470 O.2    15  GLN15      -0.2717
     27  NE2       -6.9010   19.9100   31.3190 N.am   15  GLN15      -0.0878
     28  N         -4.7450   17.7670   35.9930 N.am   16  ILE16      -0.1963
     29  CA        -4.3800   18.0840   37.3700 C.3    16  ILE16       0.1727
     30  C         -3.7640   16.8570   38.0400 C.2    16  ILE16       0.2616
     31  O         -2.7790   16.9670   38.7620 O.2    16  ILE16      -0.2715
     32  CB        -5.5960   18.5710   38.1840 C.3    16  ILE16       0.0290
     33  CG1       -6.0240   19.9580   37.6870 C.3    16  ILE16       0.0022
     34  CG2       -5.2420   18.6280   39.6740 C.3    16  ILE16       0.0023
     35  CD1       -7.3200   20.4550   38.2890 C.3    16  ILE16       0.0001
     36  N         -4.3360   15.6850   37.7820 N.am   17  GLY17      -0.1955
     37  CA        -3.8000   14.4710   38.3720 C.3    17  GLY17       0.1869
     38  C         -2.3600   14.2210   37.9530 C.2    17  GLY17       0.2309
     39  O         -1.5450   13.7660   38.7550 O.2    17  GLY17      -0.2863
     40  N         -8.8610    6.7130   41.0640 N.3    41  LEU41      -0.1231
     41  CA       -10.1340    6.4640   40.4070 C.3    41  LEU41       0.1693
     42  C        -10.1460    7.0890   39.0220 C.2    41  LEU41       0.2593
     43  O         -9.7900    8.2550   38.8440 O.2    41  LEU41      -0.2718
     44  CB       -11.2970    7.0430   41.2200 C.3    41  LEU41       0.0284
     45  CG       -12.6850    6.7730   40.6180 C.3    41  LEU41       0.0019
     46  CD1      -13.0060    5.2770   40.7180 C.3    41  LEU41       0.0001
     47  CD2      -13.7480    7.5830   41.3580 C.3    41  LEU41       0.0001
     48  N        -10.5500    6.2910   38.0440 N.am   42  GLY42      -0.1942
     49  CA       -10.6390    6.7620   36.6820 C.3    42  GLY42       0.2014
     50  C        -11.9240    6.2030   36.1090 C.2    42  GLY42       0.2639
     51  O        -12.6560    5.4990   36.8040 O.2    42  GLY42      -0.2714
     52  N        -12.2080    6.5200   34.8530 N.am   43  SER43      -0.1949
     53  CA       -13.4060    6.0240   34.1920 C.3    43  SER43       0.1924
     54  C        -12.9780    4.9460   33.2090 C.2    43  SER43       0.2314
     55  O        -11.8000    4.8550   32.8530 O.2    43  SER43      -0.2863
     56  CB       -14.1110    7.1630   33.4500 C.3    43  SER43       0.2116
     57  OG       -13.2300    7.8130   32.5470 O.3    43  SER43      -0.2180
     58  N        -10.9440    6.3310   30.4030 N.3    46  SER46      -0.1217
     59  CA        -9.5650    6.7440   30.6260 C.3    46  SER46       0.1889
     60  C         -8.7560    5.7800   31.4860 C.2    46  SER46       0.2288
     61  O         -7.7010    6.1490   32.0010 O.2    46  SER46      -0.2866
     62  CB        -9.5500    8.1250   31.2750 C.3    46  SER46       0.2089
     63  OG       -10.2570    8.0900   32.4990 O.3    46  SER46      -0.2183
     64  N        -10.9940   15.2980   42.2120 N.3    87  VAL87      -0.1231
     65  CA       -10.5990   16.1550   41.1100 C.3    87  VAL87       0.1692
     66  C        -11.4850   15.9520   39.8910 C.2    87  VAL87       0.2593
     67  O        -11.7630   16.8990   39.1590 O.2    87  VAL87      -0.2718
     68  CB        -9.1230   15.8940   40.7220 C.3    87  VAL87       0.0266
     69  CG1       -8.7010   16.8190   39.5860 C.3    87  VAL87       0.0020
     70  CG2       -8.2290   16.1030   41.9400 C.3    87  VAL87       0.0020
     71  N        -11.9220   14.7150   39.6730 N.am   88  GLY88      -0.1942
     72  CA       -12.7700   14.4310   38.5300 C.3    88  GLY88       0.2014
     73  C        -14.1680   15.0210   38.6250 C.2    88  GLY88       0.2639
     74  O        -14.7990   14.9900   39.6760 O.2    88  GLY88      -0.2714
     75  N        -14.6490   15.5730   37.5190 N.am   89  ALA89      -0.1963
     76  CA       -15.9860   16.1500   37.4720 C.3    89  ALA89       0.1728
     77  C        -16.5650   15.8880   36.0870 C.2    89  ALA89       0.2616
     78  O        -15.9600   15.1820   35.2820 O.2    89  ALA89      -0.2715
     79  CB       -15.9350   17.6490   37.7540 C.3    89  ALA89       0.0334
     80  N        -17.7350   16.4520   35.8120 N.am   90  ALA90      -0.1964
     81  CA       -18.3770   16.2620   34.5190 C.3    90  ALA90       0.1713
     82  C        -17.5920   16.9560   33.4110 C.2    90  ALA90       0.2458
     83  O        -17.1200   18.0810   33.5830 O.2    90  ALA90      -0.2730
     84  CB       -19.8000   16.7980   34.5640 C.3    90  ALA90       0.0333
     85  N        -17.4350   16.2870   32.2580 N.am   91  PRO91      -0.2727
     86  CA       -16.7060   16.8460   31.1150 C.3    91  PRO91       0.1402
     87  C        -17.5400   17.9230   30.4300 C.2    91  PRO91       0.2269
     88  O        -18.7600   17.9680   30.5950 O.2    91  PRO91      -0.2865
     89  CB       -16.5030   15.6340   30.2180 C.3    91  PRO91       0.0296
     90  CG       -17.7620   14.8620   30.4440 C.3    91  PRO91       0.0237
     91  CD       -17.9150   14.9270   31.9530 C.3    91  PRO91       0.0939
     92  N        -12.0990   19.4410   44.1160 N.3   129  VAL129     -0.1231
     93  CA       -11.4170   20.3300   43.1890 C.3   129  VAL129      0.1692
     94  C        -12.2480   20.4810   41.9130 C.2   129  VAL129      0.2593
     95  O        -12.3490   21.5750   41.3560 O.2   129  VAL129     -0.2718
     96  CB       -10.0160   19.7810   42.8290 C.3   129  VAL129      0.0266
     97  CG1       -9.3920   20.6140   41.7160 C.3   129  VAL129      0.0020
     98  CG2       -9.1180   19.7980   44.0700 C.3   129  VAL129      0.0020
     99  N        -12.8440   19.3780   41.4620 N.am  130  GLY130     -0.1942
    100  CA       -13.6620   19.4120   40.2600 C.3   130  GLY130      0.2014
    101  C        -14.7840   20.4290   40.3690 C.2   130  GLY130      0.2638
    102  O        -15.5300   20.4380   41.3490 O.2   130  GLY130     -0.2714
    103  N        -14.9090   21.2820   39.3570 N.am  131  ASN131     -0.1972
    104  CA       -15.9270   22.3220   39.3550 C.3   131  ASN131      0.1688
    105  C        -17.3320   21.8840   38.9500 C.2   131  ASN131      0.2292
    106  O        -17.5100   20.9160   38.2100 O.2   131  ASN131     -0.2864
    107  CB       -15.4790   23.4900   38.4700 C.3   131  ASN131      0.1181
    108  CG       -14.4400   24.3650   39.1500 C.2   131  ASN131      0.2629
    109  OD1      -14.6150   24.7690   40.3010 O.2   131  ASN131     -0.2716
    110  ND2      -13.3580   24.6690   38.4400 N.am  131  ASN131     -0.0877
    111  N        -16.6450   23.4330   42.2140 N.3   133  ALA133     -0.1245
    112  CA       -16.1550   22.9350   43.4940 C.3   133  ALA133      0.1562
    113  C        -17.0490   23.0700   44.7280 C.2   133  ALA133      0.2260
    114  O        -17.4000   22.0680   45.3460 O.2   133  ALA133     -0.2867
    115  CB       -14.7790   23.5360   43.7870 C.3   133  ALA133      0.0290
    116  N        -11.8220   23.6540   47.0950 N.3   155  MET155     -0.1245
    117  CA       -10.6080   24.4350   46.9350 C.3   155  MET155      0.1570
    118  C        -10.6930   25.8540   46.3850 C.2   155  MET155      0.2261
    119  O        -11.1860   26.0850   45.2830 O.2   155  MET155     -0.2867
    120  CB        -9.6000   23.6440   46.0920 C.3   155  MET155      0.0387
    121  CG        -8.2260   24.2980   46.0070 C.3   155  MET155      0.0595
    122  SD        -7.0320   23.2840   45.1110 S.3   155  MET155     -0.1393
    123  CE        -7.4730   23.6640   43.4420 C.3   155  MET155      0.0692
    124  N         -6.1010   27.9750   45.2110 N.3   158  LEU158     -0.1231
    125  CA        -5.4180   28.4830   44.0240 C.3   158  LEU158      0.1693
    126  C         -5.7090   29.9770   43.9180 C.2   158  LEU158      0.2592
    127  O         -4.8170   30.7770   43.6200 O.2   158  LEU158     -0.2718
    128  CB        -5.8910   27.7600   42.7550 C.3   158  LEU158      0.0284
    129  CG        -5.2700   28.2780   41.4490 C.3   158  LEU158      0.0019
    130  CD1       -3.7460   28.2100   41.5360 C.3   158  LEU158      0.0001
    131  CD2       -5.7670   27.4440   40.2750 C.3   158  LEU158      0.0001
    132  N         -6.9590   30.3540   44.1690 N.am  159  ASP159     -0.1974
    133  CA        -7.3460   31.7620   44.1250 C.3   159  ASP159      0.1709
    134  C         -6.5080   32.4790   45.1780 C.2   159  ASP159      0.2293
    135  O         -5.9680   33.5520   44.9400 O.2   159  ASP159     -0.2864
    136  CB        -8.8300   31.9250   44.4660 C.3   159  ASP159      0.1436
    137  CG        -9.7350   31.1410   43.5310 C.2   159  ASP159      0.3671
    138  OD1       -9.6300   31.3270   42.3010 O.co2 159  ASP159     -0.2456
    139  OD2      -10.5540   30.3420   44.0330 O.co2 159  ASP159     -0.2456
    140  N         -2.9350   32.8730   44.1330 N.3   162  ARG162     -0.1245
    141  CA        -2.8810   33.8480   43.0500 C.3   162  ARG162      0.1563
    142  C         -2.9150   35.2660   43.6200 C.2   162  ARG162      0.2260
    143  O         -2.2140   36.1570   43.1320 O.2   162  ARG162     -0.2867
    144  CB        -4.0520   33.6280   42.0800 C.3   162  ARG162      0.0307
    145  CG        -3.8150   32.4910   41.0860 C.3   162  ARG162      0.0489
    146  CD        -5.0890   32.0950   40.3390 C.3   162  ARG162      0.2205
    147  NE        -4.8130   31.1320   39.2720 N.pl3 162  ARG162     -0.0865
    148  CZ        -5.7440   30.4630   38.5970 C.cat 162  ARG162      0.5346
    149  NH1       -7.0310   30.6400   38.8750 N.pl3 162  ARG162      0.1354
    150  NH2       -5.3900   29.6210   37.6320 N.pl3 162  ARG162      0.1354
    151  N        -15.7090   29.5960   44.5140 N.3   187  HIS187     -0.1241
    152  CA       -14.5690   29.5410   43.6170 C.3   187  HIS187      0.1621
    153  C        -15.2290   29.8450   42.2720 C.2   187  HIS187      0.2264
    154  O        -15.6190   28.9300   41.5460 O.2   187  HIS187     -0.2867
    155  CB       -13.9380   28.1440   43.5880 C.3   187  HIS187      0.0745
    156  CG       -12.9290   27.9780   42.5000 C.ar  187  HIS187      0.0817
    157  ND1      -11.7680   28.7170   42.4510 N.ar  187  HIS187     -0.2268
    158  CD2      -12.9520   27.2350   41.3680 C.ar  187  HIS187      0.1154
    159  CE1      -11.1230   28.4440   41.3320 C.ar  187  HIS187      0.1986
    160  NE2      -11.8210   27.5500   40.6560 N.ar  187  HIS187     -0.2212
    161  N         -5.1790   24.6490   30.5220 N.3   236  SER236     -0.1202
    162  CA        -5.5210   25.1070   31.8650 C.3   236  SER236      0.2020
    163  C         -4.3530   25.0240   32.8510 C.2   236  SER236      0.2619
    164  O         -3.3430   24.3680   32.5880 O.2   236  SER236     -0.2717
    165  CB        -6.7150   24.3120   32.3970 C.3   236  SER236      0.2103
    166  OG        -6.4480   22.9270   32.3600 O.3   236  SER236     -0.2182
    167  N         -4.5140   25.6930   33.9910 N.am  237  SER237     -0.1937
    168  CA        -3.4930   25.7600   35.0380 C.3   237  SER237      0.2055
    169  C         -3.4070   24.5130   35.9130 C.2   237  SER237      0.2642
    170  O         -3.6030   24.5880   37.1250 O.2   237  SER237     -0.2714
    171  CB        -3.7660   26.9740   35.9310 C.3   237  SER237      0.2130
    172  OG        -5.0720   26.8950   36.4780 O.3   237  SER237     -0.2179
    173  N         -3.0860   23.3810   35.2990 N.am  238  ALA238     -0.1977
    174  CA        -2.9890   22.1060   36.0050 C.3   238  ALA238      0.1597
    175  C         -1.9220   22.0440   37.0950 C.2   238  ALA238      0.2287
    176  O         -2.1860   21.5700   38.2030 O.2   238  ALA238     -0.2864
    177  CB        -2.7550   20.9750   34.9910 C.3   238  ALA238      0.0319
    178  N         -2.8070   24.3830   39.9410 N.3   241  ALA241     -0.1245
    179  CA        -4.0110   23.8940   40.6070 C.3   241  ALA241      0.1562
    180  C         -3.5940   22.7150   41.4950 C.2   241  ALA241      0.2260
    181  O         -4.0290   22.6030   42.6420 O.2   241  ALA241     -0.2867
    182  CB        -5.0450   23.4410   39.5830 C.3   241  ALA241      0.0290
@<TRIPOS>BOND
     1    26    25    2
     2    89    90    1
     3    89    86    1
     4    58    59    1
     5    87    88    2
     6    87    86    1
     7    90    91    1
     8   161   162    1
     9    59    62    1
    10    59    60    1
    11    25    27   am
    12    25    24    1
    13    86    85    1
    14    62    63    1
    15    60    61    2
    16    24    23    1
    17   162   165    1
    18   162   163    1
    19    91    85    1
    20    85    82   am
    21   166   165    1
    22    57    56    1
    23   164   163    2
    24    13    12    2
    25   163   167   am
    26    55    54    2
    27    23    20    1
    28    54    53    1
    29    82    83    2
    30    82    81    1
    31    56    53    1
    32    14    11    1
    33    19    20    1
    34    19    17   am
    35    20    21    1
    36    12    11    1
    37    12    15   am
    38    16    17    1
    39    16    15    1
    40   167   168    1
    41    17    18    2
    42    53    52    1
    43    11    10    1
    44    81    84    1
    45    81    80    1
    46    52    50   am
    47   177   174    1
    48   168   169    1
    49   168   171    1
    50    21    22    2
    51    21    28   am
    52    78    77    2
    53   173   169   am
    54   173   174    1
    55    10     7   am
    56    80    77   am
    57   169   170    2
    58   171   172    1
    59    28    29    1
    60   174   175    1
    61    77    76    1
    62    50    49    1
    63    50    51    2
    64    49    48    1
    65     8     7    2
    66     7     6    1
    67   175   176    2
    68     4     3    2
    69    29    30    1
    70    29    32    1
    71    76    75    1
    72    76    79    1
    73    75    73   am
    74   150   148    1
    75     3     2    1
    76     3     5   am
    77    33    32    1
    78    33    35    1
    79    36    30   am
    80    36    37    1
    81     2     1    1
    82    38    37    1
    83    38    39    2
    84    30    31    2
    85    48    42   am
    86     6     5    1
    87     6     9    1
    88    32    34    1
    89   106   105    2
    90   110   108   am
    91   107   108    1
    92   107   104    1
    93    72    73    1
    94    72    71    1
    95   148   149    1
    96   148   147    2
    97    73    74    2
    98    43    42    2
    99   105   104    1
   100    42    41    1
   101   108   109    2
   102    67    66    2
   103   147   146    1
   104   104   103    1
   105   103   101   am
   106   182   179    1
   107    69    68    1
   108    71    66   am
   109    66    65    1
   110   178   179    1
   111   100   101    1
   112   100    99    1
   113   131   129    1
   114   146   145    1
   115   101   102    2
   116    41    40    1
   117    41    44    1
   118   179   180    1
   119    45    46    1
   120    45    44    1
   121    45    47    1
   122   160   159   ar
   123   160   158   ar
   124    68    65    1
   125    68    70    1
   126   145   144    1
   127    65    64    1
   128   159   157   ar
   129    95    94    2
   130   158   156   ar
   131   129   130    1
   132   129   128    1
   133    99    94   am
   134   180   181    2
   135   154   153    2
   136    97    96    1
   137    94    93    1
   138   144   141    1
   139   111   112    1
   140   153   152    1
   141   138   137   ar
   142   157   156   ar
   143   156   155    1
   144   128   125    1
   145    96    93    1
   146    96    98    1
   147   141   142    1
   148   141   140    1
   149   143   142    2
   150    93    92    1
   151   123   122    1
   152   112   115    1
   153   112   113    1
   154   137   139   ar
   155   137   136    1
   156   155   152    1
   157   152   151    1
   158   127   126    2
   159   126   125    1
   160   126   132   am
   161   125   124    1
   162   133   132    1
   163   133   136    1
   164   133   134    1
   165   113   114    2
   166   135   134    2
   167   122   121    1
   168   119   118    2
   169   121   120    1
   170   120   117    1
   171   118   117    1
   172   117   116    1
