@<TRIPOS>MOLECULE
tmp/1wznC00.pdb
 213 210 0 0 0
SMALL
GASTEIGER

@<TRIPOS>ATOM
      1  N         60.4020   44.9520   61.7730 N.3     2  TYR2       -0.1241
      2  CA        60.6850   44.8780   60.3400 C.3     2  TYR2        0.1605
      3  C         59.5990   44.2300   59.4870 C.2     2  TYR2        0.2264
      4  O         59.8420   43.9220   58.3170 O.2     2  TYR2       -0.2867
      5  CB        62.0040   44.1460   60.0800 C.3     2  TYR2        0.0534
      6  CG        63.1960   44.6960   60.8260 C.ar    2  TYR2       -0.0201
      7  CD1       63.4320   46.0690   60.9040 C.ar    2  TYR2       -0.0009
      8  CD2       64.1100   43.8350   61.4310 C.ar    2  TYR2       -0.0009
      9  CE1       64.5550   46.5700   61.5710 C.ar    2  TYR2        0.0417
     10  CE2       65.2300   44.3220   62.0940 C.ar    2  TYR2        0.0417
     11  CZ        65.4470   45.6850   62.1620 C.ar    2  TYR2        0.1957
     12  OH        66.5560   46.1520   62.8290 O.3     2  TYR2       -0.2866
     13  N         59.0540   45.7730   56.1750 N.3     5  TYR5       -0.1241
     14  CA        60.1020   45.6140   55.1730 C.3     5  TYR5        0.1605
     15  C         60.3140   44.1850   54.7030 C.2     5  TYR5        0.2264
     16  O         61.1870   43.9160   53.8740 O.2     5  TYR5       -0.2867
     17  CB        61.4060   46.1760   55.7340 C.3     5  TYR5        0.0534
     18  CG        61.1990   47.4990   56.4240 C.ar    5  TYR5       -0.0201
     19  CD1       60.5480   48.5440   55.7760 C.ar    5  TYR5       -0.0009
     20  CD2       61.6290   47.7010   57.7390 C.ar    5  TYR5       -0.0009
     21  CE1       60.3250   49.7580   56.4140 C.ar    5  TYR5        0.0417
     22  CE2       61.4090   48.9140   58.3860 C.ar    5  TYR5        0.0417
     23  CZ        60.7570   49.9360   57.7170 C.ar    5  TYR5        0.1957
     24  OH        60.5320   51.1370   58.3440 O.3     5  TYR5       -0.2866
     25  N         54.8810   48.4330   50.4080 N.3    12  TYR12      -0.1241
     26  CA        55.5300   49.6480   50.8850 C.3    12  TYR12       0.1605
     27  C         55.2470   50.8930   50.0450 C.2    12  TYR12       0.2264
     28  O         54.8900   51.9420   50.5850 O.2    12  TYR12      -0.2867
     29  CB        57.0450   49.4400   50.9750 C.3    12  TYR12       0.0534
     30  CG        57.7500   50.5620   51.7000 C.ar   12  TYR12      -0.0201
     31  CD1       57.8120   50.5870   53.0970 C.ar   12  TYR12      -0.0009
     32  CD2       58.3150   51.6240   50.9960 C.ar   12  TYR12      -0.0009
     33  CE1       58.4190   51.6420   53.7740 C.ar   12  TYR12       0.0417
     34  CE2       58.9210   52.6880   51.6640 C.ar   12  TYR12       0.0417
     35  CZ        58.9670   52.6900   53.0530 C.ar   12  TYR12       0.1957
     36  OH        59.5360   53.7550   53.7160 O.3    12  TYR12      -0.2866
     37  N         54.7070   59.8990   50.1150 N.3    19  ARG19      -0.1245
     38  CA        56.1460   60.0780   50.2770 C.3    19  ARG19       0.1563
     39  C         56.8210   60.0130   48.9060 C.2    19  ARG19       0.2260
     40  O         57.8890   60.5900   48.7010 O.2    19  ARG19      -0.2867
     41  CB        56.7040   58.9990   51.2180 C.3    19  ARG19       0.0307
     42  CG        58.1860   59.1360   51.5520 C.3    19  ARG19       0.0489
     43  CD        59.0340   58.2100   50.6970 C.3    19  ARG19       0.2205
     44  NE        60.4650   58.4060   50.9210 N.pl3  19  ARG19      -0.0865
     45  CZ        61.1450   59.4780   50.5240 C.cat  19  ARG19       0.5346
     46  NH1       60.5280   60.4600   49.8770 N.pl3  19  ARG19       0.1354
     47  NH2       62.4460   59.5710   50.7720 N.pl3  19  ARG19       0.1354
     48  N         73.4540   55.6310   49.4550 N.3    47  ASP47      -0.1225
     49  CA        72.1520   55.7800   50.1010 C.3    47  ASP47       0.1805
     50  C         71.9280   54.6190   51.0750 C.2    47  ASP47       0.2598
     51  O         71.5940   53.5070   50.6660 O.2    47  ASP47      -0.2718
     52  CB        71.0530   55.8160   49.0320 C.3    47  ASP47       0.1424
     53  CG        69.6890   56.1590   49.5980 C.2    47  ASP47       0.3668
     54  OD1       69.6220   56.8790   50.6210 O.co2  47  ASP47      -0.2456
     55  OD2       68.6790   55.7240   49.0070 O.co2  47  ASP47      -0.2456
     56  N         72.1180   54.8970   52.3640 N.am   48  LEU48      -0.1966
     57  CA        71.9700   53.9110   53.4360 C.3    48  LEU48       0.1728
     58  C         70.5030   53.6140   53.7770 C.2    48  LEU48       0.2616
     59  O         69.6820   54.5280   53.8580 O.2    48  LEU48      -0.2715
     60  CB        72.7030   54.4100   54.6880 C.3    48  LEU48       0.0311
     61  CG        74.2140   54.6390   54.5220 C.3    48  LEU48       0.0022
     62  CD1       74.7790   55.3060   55.7660 C.3    48  LEU48       0.0001
     63  CD2       74.9060   53.3110   54.2720 C.3    48  LEU48       0.0001
     64  N         70.1880   52.3390   53.9930 N.am   49  ALA49      -0.1963
     65  CA        68.8170   51.9220   54.3000 C.3    49  ALA49       0.1728
     66  C         67.9000   52.4660   53.2070 C.2    49  ALA49       0.2616
     67  O         66.9060   53.1460   53.4790 O.2    49  ALA49      -0.2715
     68  CB        68.3920   52.4570   55.6710 C.3    49  ALA49       0.0334
     69  N         68.2430   52.1370   51.9650 N.am   50  CYS50      -0.1954
     70  CA        67.5220   52.6050   50.7840 C.3    50  CYS50       0.1843
     71  C         66.0900   52.1110   50.5770 C.2    50  CYS50       0.2626
     72  O         65.3400   52.7130   49.8120 O.2    50  CYS50      -0.2714
     73  CB        68.3470   52.2800   49.5330 C.3    50  CYS50       0.0997
     74  SG        68.5930   50.5120   49.2630 S.3    50  CYS50      -0.0797
     75  N         65.7100   51.0220   51.2410 N.am   51  GLY51      -0.1940
     76  CA        64.3560   50.5080   51.0890 C.3    51  GLY51       0.2014
     77  C         64.0280   50.1440   49.6540 C.2    51  GLY51       0.2639
     78  O         64.8170   49.4630   48.9950 O.2    51  GLY51      -0.2714
     79  N         62.8730   50.5940   49.1670 N.am   52  THR52      -0.1950
     80  CA        62.4640   50.3080   47.7980 C.3    52  THR52       0.1897
     81  C         63.0870   51.3120   46.8350 C.2    52  THR52       0.2313
     82  O         62.6690   51.4240   45.6810 O.2    52  THR52      -0.2863
     83  CB        60.9250   50.3400   47.6330 C.3    52  THR52       0.1794
     84  OG1       60.4310   51.6630   47.8890 O.3    52  THR52      -0.2208
     85  CG2       60.2660   49.3410   48.5940 C.3    52  THR52       0.0378
     86  N         63.0200   54.6900   46.6860 N.3    54  ILE54      -0.1231
     87  CA        62.2430   55.8260   46.1930 C.3    54  ILE54       0.1678
     88  C         63.1310   57.0380   45.8880 C.2    54  ILE54       0.2434
     89  O         63.0570   57.6020   44.7970 O.2    54  ILE54      -0.2733
     90  CB        61.1190   56.1950   47.1840 C.3    54  ILE54       0.0265
     91  CG1       60.1060   55.0470   47.2310 C.3    54  ILE54       0.0019
     92  CG2       60.4340   57.4810   46.7580 C.3    54  ILE54       0.0020
     93  CD1       59.0750   55.1640   48.3220 C.3    54  ILE54       0.0001
     94  N         63.9750   57.4630   46.8450 N.am   55  PRO55      -0.2729
     95  CA        64.8360   58.6140   46.5510 C.3    55  PRO55       0.1401
     96  C         66.0850   58.1710   45.7860 C.2    55  PRO55       0.2269
     97  O         66.7040   58.9570   45.0670 O.2    55  PRO55      -0.2865
     98  CB        65.1630   59.1630   47.9370 C.3    55  PRO55       0.0296
     99  CG        65.1910   57.9240   48.7770 C.3    55  PRO55       0.0237
    100  CD        63.9760   57.1630   48.2890 C.3    55  PRO55       0.0939
    101  N         70.6230   48.1010   51.9480 N.3    70  ASP70      -0.1225
    102  CA        69.4870   47.8400   52.8230 C.3    70  ASP70       0.1805
    103  C         69.6100   46.4760   53.4790 C.2    70  ASP70       0.2598
    104  O         70.1630   45.5370   52.9020 O.2    70  ASP70      -0.2718
    105  CB        68.1590   47.9140   52.0620 C.3    70  ASP70       0.1424
    106  CG        66.9670   48.1140   52.9960 C.2    70  ASP70       0.3668
    107  OD1       66.6550   49.2800   53.3160 O.co2  70  ASP70      -0.2456
    108  OD2       66.3580   47.1100   53.4280 O.co2  70  ASP70      -0.2456
    109  N         69.0860   46.3720   54.6930 N.am   71  LEU71      -0.1966
    110  CA        69.1390   45.1300   55.4440 C.3    71  LEU71       0.1728
    111  C         68.2330   44.0500   54.8540 C.2    71  LEU71       0.2616
    112  O         68.5560   42.8650   54.9180 O.2    71  LEU71      -0.2715
    113  CB        68.7360   45.3870   56.9030 C.3    71  LEU71       0.0311
    114  CG        68.8450   44.2340   57.9070 C.3    71  LEU71       0.0022
    115  CD1       70.3050   43.8200   58.0610 C.3    71  LEU71       0.0001
    116  CD2       68.2860   44.6710   59.2590 C.3    71  LEU71       0.0001
    117  N         67.1130   44.4540   54.2630 N.am   72  HIS72      -0.1973
    118  CA        66.1700   43.4770   53.7310 C.3    72  HIS72       0.1656
    119  C         66.0920   43.2790   52.2260 C.2    72  HIS72       0.2291
    120  O         65.8250   44.2010   51.4640 O.2    72  HIS72      -0.2864
    121  CB        64.7750   43.7670   54.2910 C.3    72  HIS72       0.0771
    122  CG        64.7110   43.6910   55.7850 C.ar   72  HIS72       0.0820
    123  ND1       64.7990   44.8030   56.5930 N.ar   72  HIS72      -0.2267
    124  CD2       64.6260   42.6270   56.6190 C.ar   72  HIS72       0.1154
    125  CE1       64.7700   44.4290   57.8600 C.ar   72  HIS72       0.1986
    126  NE2       64.6660   43.1130   57.9030 N.ar   72  HIS72      -0.2212
    127  N         62.9300   44.3470   50.2900 N.3    75  MET75      -0.1245
    128  CA        62.8200   45.7440   49.8730 C.3    75  MET75       0.1570
    129  C         63.6720   45.9670   48.6200 C.2    75  MET75       0.2261
    130  O         63.2460   46.6240   47.6710 O.2    75  MET75      -0.2867
    131  CB        63.3020   46.6750   50.9910 C.3    75  MET75       0.0387
    132  CG        62.4310   46.6540   52.2490 C.3    75  MET75       0.0595
    133  SD        60.8040   47.3780   51.9760 S.3    75  MET75      -0.1393
    134  CE        61.1700   49.1340   52.1600 C.3    75  MET75       0.0692
    135  N         72.8110   44.5080   53.3000 N.3    95  GLY95      -0.1210
    136  CA        73.7500   44.6110   54.3970 C.3    95  GLY95       0.1956
    137  C         73.2760   45.5490   55.4860 C.2    95  GLY95       0.2612
    138  O         72.3390   46.3240   55.2860 O.2    95  GLY95      -0.2717
    139  N         73.9320   45.4690   56.6380 N.am   96  ASP96      -0.1959
    140  CA        73.6110   46.3030   57.7920 C.3    96  ASP96       0.1840
    141  C         74.4230   47.5940   57.6700 C.2    96  ASP96       0.2622
    142  O         75.6360   47.5470   57.4490 O.2    96  ASP96      -0.2715
    143  CB        74.0010   45.5620   59.0760 C.3    96  ASP96       0.1450
    144  CG        73.5090   46.2550   60.3330 C.2    96  ASP96       0.3671
    145  OD1       73.3150   47.4890   60.3070 O.co2  96  ASP96      -0.2456
    146  OD2       73.3320   45.5570   61.3560 O.co2  96  ASP96      -0.2456
    147  N         73.7680   48.7440   57.8090 N.am   97  VAL97      -0.1963
    148  CA        74.4830   50.0130   57.7060 C.3    97  VAL97       0.1727
    149  C         75.5170   50.1810   58.8150 C.2    97  VAL97       0.2616
    150  O         76.4750   50.9340   58.6620 O.2    97  VAL97      -0.2715
    151  CB        73.5240   51.2300   57.7430 C.3    97  VAL97       0.0290
    152  CG1       72.6240   51.2210   56.5180 C.3    97  VAL97       0.0023
    153  CG2       72.7030   51.2100   59.0260 C.3    97  VAL97       0.0023
    154  N         75.3320   49.4740   59.9260 N.am   98  LEU98      -0.1977
    155  CA        76.2650   49.5720   61.0430 C.3    98  LEU98       0.1596
    156  C         77.5520   48.7920   60.7840 C.2    98  LEU98       0.2287
    157  O         78.5060   48.8830   61.5590 O.2    98  LEU98      -0.2864
    158  CB        75.6070   49.0540   62.3230 C.3    98  LEU98       0.0297
    159  CG        74.3710   49.8280   62.7920 C.3    98  LEU98       0.0022
    160  CD1       73.7780   49.1570   64.0170 C.3    98  LEU98       0.0001
    161  CD2       74.7610   51.2620   63.0960 C.3    98  LEU98       0.0001
    162  N         67.4730   58.4400   54.0490 N.3   112  PHE112     -0.1227
    163  CA        66.1740   59.0830   53.9200 C.3   112  PHE112      0.1736
    164  C         65.0000   58.4680   54.6700 C.2   112  PHE112      0.2595
    165  O         64.9240   57.2590   54.8650 O.2   112  PHE112     -0.2718
    166  CB        65.7890   59.1570   52.4410 C.3   112  PHE112      0.0547
    167  CG        66.6880   60.0310   51.6130 C.ar  112  PHE112     -0.0202
    168  CD1       66.6520   61.4150   51.7480 C.ar  112  PHE112     -0.0042
    169  CD2       67.5430   59.4710   50.6670 C.ar  112  PHE112     -0.0042
    170  CE1       67.4520   62.2330   50.9450 C.ar  112  PHE112     -0.0003
    171  CE2       68.3460   60.2750   49.8610 C.ar  112  PHE112     -0.0003
    172  CZ        68.3010   61.6580   49.9970 C.ar  112  PHE112     -0.0000
    173  N         64.0830   59.3460   55.0660 N.am  113  PHE113     -0.1976
    174  CA        62.8410   58.9880   55.7370 C.3   113  PHE113      0.1639
    175  C         62.8650   58.4430   57.1620 C.2   113  PHE113      0.2290
    176  O         62.3980   57.3300   57.4260 O.2   113  PHE113     -0.2864
    177  CB        62.0330   58.0500   54.8250 C.3   113  PHE113      0.0560
    178  CG        60.5510   58.0650   55.0920 C.ar  113  PHE113     -0.0200
    179  CD1       59.8900   59.2610   55.3730 C.ar  113  PHE113     -0.0042
    180  CD2       59.8100   56.8910   55.0390 C.ar  113  PHE113     -0.0042
    181  CE1       58.5100   59.2840   55.5980 C.ar  113  PHE113     -0.0003
    182  CE2       58.4260   56.9030   55.2610 C.ar  113  PHE113     -0.0003
    183  CZ        57.7780   58.1040   55.5420 C.ar  113  PHE113     -0.0000
    184  N         64.9680   57.0350   59.2060 N.3   115  THR115     -0.1218
    185  CA        65.6010   55.8020   59.6480 C.3   115  THR115      0.1862
    186  C         66.5500   55.8910   60.8480 C.2   115  THR115      0.2287
    187  O         66.7900   54.8800   61.5160 O.2   115  THR115     -0.2866
    188  CB        66.3040   55.1190   58.4610 C.3   115  THR115      0.1770
    189  OG1       65.3390   54.9000   57.4250 O.3   115  THR115     -0.2211
    190  CG2       66.8910   53.7770   58.8760 C.3   115  THR115      0.0375
    191  N         65.7830   54.1800   64.1720 N.3   118  TYR118     -0.1227
    192  CA        65.9680   52.7480   64.4140 C.3   118  TYR118      0.1736
    193  C         67.2000   52.4410   65.2660 C.2   118  TYR118      0.2595
    194  O         67.3720   51.3130   65.7380 O.2   118  TYR118     -0.2718
    195  CB        66.0860   51.9980   63.0760 C.3   118  TYR118      0.0548
    196  CG        64.7590   51.6220   62.4550 C.ar  118  TYR118     -0.0200
    197  CD1       64.0310   50.5330   62.9340 C.ar  118  TYR118     -0.0009
    198  CD2       64.2040   52.3820   61.4250 C.ar  118  TYR118     -0.0009
    199  CE1       62.7790   50.2110   62.4080 C.ar  118  TYR118      0.0417
    200  CE2       62.9500   52.0710   60.8920 C.ar  118  TYR118      0.0417
    201  CZ        62.2440   50.9850   61.3930 C.ar  118  TYR118      0.1957
    202  OH        60.9960   50.6850   60.8970 O.3   118  TYR118     -0.2866
    203  N         68.0460   53.4450   65.4810 N.am  119  PHE119     -0.1976
    204  CA        69.2770   53.2510   66.2470 C.3   119  PHE119      0.1639
    205  C         69.3270   54.0240   67.5640 C.2   119  PHE119      0.2290
    206  O         68.9780   55.2050   67.6130 O.2   119  PHE119     -0.2864
    207  CB        70.4690   53.6630   65.3840 C.3   119  PHE119      0.0560
    208  CG        70.4280   53.0950   63.9960 C.ar  119  PHE119     -0.0200
    209  CD1       70.6910   51.7470   63.7730 C.ar  119  PHE119     -0.0042
    210  CD2       70.0820   53.9010   62.9160 C.ar  119  PHE119     -0.0042
    211  CE1       70.6070   51.2060   62.4930 C.ar  119  PHE119     -0.0003
    212  CE2       69.9940   53.3730   61.6310 C.ar  119  PHE119     -0.0003
    213  CZ        70.2570   52.0220   61.4170 C.ar  119  PHE119     -0.0000
@<TRIPOS>BOND
     1    89    88    2
     2    97    96    2
     3    82    81    2
     4    96    95    1
     5    88    87    1
     6    88    94   am
     7    87    86    1
     8    87    90    1
     9    95    94    1
    10    95    98    1
    11    92    90    1
    12    81    80    1
    13    94   100    1
    14    90    91    1
    15    91    93    1
    16    83    80    1
    17    83    84    1
    18    83    85    1
    19   130   129    2
    20    80    79    1
    21    98    99    1
    22   100    99    1
    23   129   128    1
    24    40    39    2
    25    39    38    1
    26    78    77    2
    27    55    53   ar
    28    52    53    1
    29    52    49    1
    30    79    77   am
    31    74    73    1
    32    48    49    1
    33    73    70    1
    34    53    54   ar
    35    77    76    1
    36    72    71    2
    37   171   172   ar
    38   171   169   ar
    39   128   127    1
    40   128   131    1
    41    46    45    1
    42   172   170   ar
    43    27    28    2
    44    27    26    1
    45    49    50    1
    46    37    38    1
    47    38    41    1
    48    25    26    1
    49    45    47    1
    50    45    44    2
    51    71    70    1
    52    71    75   am
    53    51    50    2
    54   169   167   ar
    55    43    44    1
    56    43    42    1
    57    70    69    1
    58    26    29    1
    59   170   168   ar
    60    29    30    1
    61   131   132    1
    62    32    34   ar
    63    32    30   ar
    64    50    56   am
    65    76    75    1
    66    41    42    1
    67   120   119    2
    68   167   168   ar
    69   167   166    1
    70    34    35   ar
    71    30    31   ar
    72   101   102    1
    73    69    66   am
    74   133   134    1
    75   133   132    1
    76   105   102    1
    77   105   106    1
    78   119   118    1
    79    56    57    1
    80   166   163    1
    81   102   103    1
    82   104   103    2
    83   106   107   ar
    84   106   108   ar
    85    35    36    1
    86    35    33   ar
    87    31    33   ar
    88    66    67    2
    89    66    65    1
    90   135   136    1
    91    57    58    1
    92    57    60    1
    93   103   109   am
    94   118   117    1
    95   118   121    1
    96    58    59    2
    97    58    64   am
    98    16    15    2
    99   163   162    1
   100   163   164    1
   101    64    65    1
   102   117   111   am
   103    63    61    1
   104   121   122    1
   105    65    68    1
   106   136   137    1
   107    61    60    1
   108    61    62    1
   109   164   165    2
   110   164   173   am
   111   109   110    1
   112    15    14    1
   113   177   178    1
   114   177   174    1
   115   111   112    2
   116   111   110    1
   117   180   178   ar
   118   180   182   ar
   119   173   174    1
   120   178   179   ar
   121    14    17    1
   122    14    13    1
   123   182   183   ar
   124   138   137    2
   125   179   181   ar
   126   110   113    1
   127   137   139   am
   128   183   181   ar
   129    17    18    1
   130   174   175    1
   131    19    21   ar
   132    19    18   ar
   133   122   123   ar
   134   122   124   ar
   135    21    23   ar
   136    18    20   ar
   137   152   151    1
   138   123   125   ar
   139   124   126   ar
   140   139   140    1
   141   113   114    1
   142   175   176    2
   143   189   188    1
   144   142   141    2
   145   141   140    1
   146   141   147   am
   147   148   151    1
   148   148   147    1
   149   148   149    1
   150    23    24    1
   151    23    22   ar
   152    20    22   ar
   153   151   153    1
   154   140   143    1
   155   125   126   ar
   156   114   115    1
   157   114   116    1
   158     4     3    2
   159   188   190    1
   160   188   185    1
   161   150   149    2
   162   149   154   am
   163   143   144    1
   164   184   185    1
   165     3     2    1
   166   185   186    1
   167   154   155    1
   168     5     2    1
   169     5     6    1
   170   145   144   ar
   171   144   146   ar
   172     2     1    1
   173   156   155    1
   174   156   157    2
   175     6     7   ar
   176     6     8   ar
   177   186   187    2
   178   200   201   ar
   179   200   198   ar
   180   202   201    1
   181     7     9   ar
   182   155   158    1
   183   201   199   ar
   184   213   212   ar
   185   213   211   ar
   186   198   196   ar
   187     8    10   ar
   188     9    11   ar
   189   212   210   ar
   190    10    11   ar
   191    11    12    1
   192   158   159    1
   193   199   197   ar
   194   196   197   ar
   195   196   195    1
   196   211   209   ar
   197   159   161    1
   198   159   160    1
   199   210   208   ar
   200   195   192    1
   201   209   208   ar
   202   208   207    1
   203   191   192    1
   204   192   193    1
   205   193   203   am
   206   193   194    2
   207   207   204    1
   208   203   204    1
   209   204   205    1
   210   205   206    2
