@<TRIPOS>MOLECULE
tmp/1wzuA00.pdb
 119 115 0 0 0
SMALL
GASTEIGER

@<TRIPOS>ATOM
      1  N         30.1740   25.2470    8.4390 N.3    21  HIS21      -0.1241
      2  CA        29.6910   24.2290    9.3980 C.3    21  HIS21       0.1621
      3  C         30.7660   23.1630    9.5230 C.2    21  HIS21       0.2264
      4  O         31.5490   22.9480    8.5860 O.2    21  HIS21      -0.2867
      5  CB        28.3540   23.6620    8.9640 C.3    21  HIS21       0.0745
      6  CG        27.8030   22.5810    9.8490 C.ar   21  HIS21       0.0817
      7  ND1       28.0000   21.2430    9.5030 N.ar   21  HIS21      -0.2268
      8  CD2       27.2020   22.5660   11.0450 C.ar   21  HIS21       0.1154
      9  CE1       27.4430   20.4870   10.4140 C.ar   21  HIS21       0.1986
     10  NE2       26.9750   21.2460   11.3790 N.ar   21  HIS21      -0.2212
     11  N         30.5410   20.0460    8.9900 N.3    23  TYR23      -0.1241
     12  CA        30.4910   18.9730    7.9940 C.3    23  TYR23       0.1605
     13  C         31.0340   19.3940    6.6380 C.2    23  TYR23       0.2264
     14  O         31.0690   18.5830    5.7150 O.2    23  TYR23      -0.2867
     15  CB        29.0610   18.4620    7.7770 C.3    23  TYR23       0.0534
     16  CG        28.3950   17.8350    8.9760 C.ar   23  TYR23      -0.0201
     17  CD1       29.1400   17.2050    9.9690 C.ar   23  TYR23      -0.0009
     18  CD2       27.0050   17.8510    9.1010 C.ar   23  TYR23      -0.0009
     19  CE1       28.5150   16.6090   11.0660 C.ar   23  TYR23       0.0417
     20  CE2       26.3690   17.2560   10.1880 C.ar   23  TYR23       0.0417
     21  CZ        27.1290   16.6410   11.1670 C.ar   23  TYR23       0.1957
     22  OH        26.5010   16.0860   12.2580 O.3    23  TYR23      -0.2866
     23  N         29.4080   24.4150   14.9950 N.3    37  ASP37      -0.1225
     24  CA        28.1160   23.7500   14.8560 C.3    37  ASP37       0.1805
     25  C         27.0320   24.8300   14.7190 C.2    37  ASP37       0.2598
     26  O         27.3480   26.0210   14.6840 O.2    37  ASP37      -0.2718
     27  CB        27.8530   22.8160   16.0570 C.3    37  ASP37       0.1424
     28  CG        27.6560   23.5640   17.3610 C.2    37  ASP37       0.3668
     29  OD1       27.6970   24.8110   17.3560 O.co2  37  ASP37      -0.2456
     30  OD2       27.4500   22.8860   18.3960 O.co2  37  ASP37      -0.2456
     31  N         25.7610   24.4460   14.6420 N.am   38  SER38      -0.1952
     32  CA        24.7090   25.4500   14.4560 C.3    38  SER38       0.1924
     33  C         24.6080   26.5410   15.5070 C.2    38  SER38       0.2314
     34  O         24.3940   27.7060   15.1740 O.2    38  SER38      -0.2863
     35  CB        23.3460   24.7750   14.2860 C.3    38  SER38       0.2116
     36  OG        23.3080   24.0960   13.0440 O.3    38  SER38      -0.2180
     37  N         18.6990   25.7350    5.8520 N.3    60  PHE60      -0.1241
     38  CA        17.9830   26.2440    7.0130 C.3    60  PHE60       0.1605
     39  C         18.8470   27.0420    7.9850 C.2    60  PHE60       0.2264
     40  O         18.3340   27.8990    8.7010 O.2    60  PHE60      -0.2867
     41  CB        17.2500   25.1090    7.7440 C.3    60  PHE60       0.0534
     42  CG        18.1400   24.0010    8.2080 C.ar   60  PHE60      -0.0203
     43  CD1       19.0450   24.2020    9.2460 C.ar   60  PHE60      -0.0042
     44  CD2       18.0620   22.7430    7.6180 C.ar   60  PHE60      -0.0042
     45  CE1       19.8600   23.1680    9.6920 C.ar   60  PHE60      -0.0003
     46  CE2       18.8750   21.7000    8.0580 C.ar   60  PHE60      -0.0003
     47  CZ        19.7770   21.9150    9.0980 C.ar   60  PHE60      -0.0000
     48  N         13.6140   22.4560   16.1670 N.3    97  TYR97      -0.1227
     49  CA        15.0260   22.2220   15.9020 C.3    97  TYR97       0.1736
     50  C         15.3810   23.1770   14.7600 C.2    97  TYR97       0.2595
     51  O         14.5490   23.4250   13.8880 O.2    97  TYR97      -0.2718
     52  CB        15.1920   20.7580   15.4800 C.3    97  TYR97       0.0548
     53  CG        16.6030   20.2700   15.2540 C.ar   97  TYR97      -0.0200
     54  CD1       17.6890   20.8380   15.9250 C.ar   97  TYR97      -0.0009
     55  CD2       16.8420   19.1760   14.4170 C.ar   97  TYR97      -0.0009
     56  CE1       18.9810   20.3210   15.7690 C.ar   97  TYR97       0.0417
     57  CE2       18.1190   18.6570   14.2570 C.ar   97  TYR97       0.0417
     58  CZ        19.1830   19.2290   14.9330 C.ar   97  TYR97       0.1957
     59  OH        20.4400   18.6890   14.7780 O.3    97  TYR97      -0.2866
     60  N         16.5920   23.7320   14.7660 N.am   98  VAL98      -0.1966
     61  CA        16.9770   24.6590   13.7110 C.3    98  VAL98       0.1727
     62  C         16.9050   24.0040   12.3410 C.2    98  VAL98       0.2616
     63  O         16.7990   24.6910   11.3340 O.2    98  VAL98      -0.2715
     64  CB        18.3960   25.2440   13.9380 C.3    98  VAL98       0.0290
     65  CG1       18.3530   26.2530   15.0820 C.3    98  VAL98       0.0023
     66  CG2       19.3870   24.1340   14.2350 C.3    98  VAL98       0.0023
     67  N         16.9600   22.6740   12.3120 N.am   99  ASN99      -0.1972
     68  CA        16.8590   21.9250   11.0590 C.3    99  ASN99       0.1688
     69  C         15.3810   21.9640   10.6600 C.2    99  ASN99       0.2292
     70  O         14.6770   20.9580   10.7560 O.2    99  ASN99      -0.2864
     71  CB        17.2890   20.4620   11.2620 C.3    99  ASN99       0.1181
     72  CG        18.7730   20.3090   11.5650 C.2    99  ASN99       0.2629
     73  OD1       19.3360   21.0400   12.3830 O.2    99  ASN99      -0.2716
     74  ND2       19.4110   19.3360   10.9160 N.am   99  ASN99      -0.0877
     75  N         19.2190   23.7150   18.9680 N.3   113  THR113     -0.1203
     76  CA        20.2040   23.0390   18.1360 C.3   113  THR113      0.1994
     77  C         20.5080   21.7750   18.9320 C.2   113  THR113      0.2618
     78  O         19.9830   21.6030   20.0360 O.2   113  THR113     -0.2717
     79  CB        21.5150   23.8570   17.9820 C.3   113  THR113      0.1784
     80  OG1       22.2450   23.8360   19.2160 O.3   113  THR113     -0.2211
     81  CG2       21.2100   25.3010   17.6050 C.3   113  THR113      0.0376
     82  N         21.3480   20.8970   18.3900 N.am  114  SER114     -0.1951
     83  CA        21.6950   19.6600   19.0830 C.3   114  SER114      0.1924
     84  C         22.4480   19.9010   20.3840 C.2   114  SER114      0.2314
     85  O         22.3300   19.1210   21.3270 O.2   114  SER114     -0.2863
     86  CB        22.5430   18.7580   18.1850 C.3   114  SER114      0.2116
     87  OG        21.7950   18.3140   17.0710 O.3   114  SER114     -0.2180
     88  N         25.9740   11.2300   17.5830 N.3   173  HIS173     -0.1241
     89  CA        25.1620   12.4300   17.4420 C.3   173  HIS173      0.1621
     90  C         23.7430   12.1270   17.9150 C.2   173  HIS173      0.2264
     91  O         23.2410   11.0300   17.6920 O.2   173  HIS173     -0.2867
     92  CB        25.1630   12.8700   15.9730 C.3   173  HIS173      0.0745
     93  CG        24.7010   14.2770   15.7640 C.ar  173  HIS173      0.0817
     94  ND1       23.3690   14.6310   15.7620 N.ar  173  HIS173     -0.2268
     95  CD2       25.3980   15.4260   15.5900 C.ar  173  HIS173      0.1154
     96  CE1       23.2650   15.9390   15.6000 C.ar  173  HIS173      0.1986
     97  NE2       24.4810   16.4450   15.4930 N.ar  173  HIS173     -0.2212
     98  N         21.1030   12.7770   16.7400 N.3   175  GLU175     -0.1245
     99  CA        20.2250   12.5250   15.6130 C.3   175  GLU175      0.1567
    100  C         20.1890   11.0330   15.2650 C.2   175  GLU175      0.2260
    101  O         19.4080   10.6110   14.4150 O.2   175  GLU175     -0.2867
    102  CB        20.6810   13.3280   14.3930 C.3   175  GLU175      0.0388
    103  CG        20.0630   14.7080   14.3120 C.3   175  GLU175      0.1160
    104  CD        20.4020   15.4150   13.0170 C.2   175  GLU175      0.3649
    105  OE1       20.4700   14.7340   11.9720 O.co2 175  GLU175     -0.2457
    106  OE2       20.5860   16.6480   13.0380 O.co2 175  GLU175     -0.2457
    107  N         26.5510   17.3620   19.9150 N.3   189  SER189     -0.1202
    108  CA        26.5200   17.9690   18.5990 C.3   189  SER189      0.2020
    109  C         27.9890   17.9320   18.1820 C.2   189  SER189      0.2619
    110  O         28.8500   17.5490   18.9810 O.2   189  SER189     -0.2717
    111  CB        26.0290   19.4160   18.6900 C.3   189  SER189      0.2103
    112  OG        26.9940   20.2500   19.3160 O.3   189  SER189     -0.2182
    113  N         28.2830   18.3070   16.9430 N.am  190  THR190     -0.1952
    114  CA        29.6680   18.3120   16.4870 C.3   190  THR190      0.1897
    115  C         30.4830   19.2610   17.3680 C.2   190  THR190      0.2313
    116  O         31.6600   19.0280   17.6260 O.2   190  THR190     -0.2863
    117  CB        29.7660   18.7640   15.0310 C.3   190  THR190      0.1794
    118  OG1       29.2030   20.0790   14.9000 O.3   190  THR190     -0.2208
    119  CG2       29.0030   17.7970   14.1240 C.3   190  THR190      0.0378
@<TRIPOS>BOND
     1    14    13    2
     2    37    38    1
     3    13    12    1
     4    38    41    1
     5    38    39    1
     6    44    46   ar
     7    44    42   ar
     8    41    42    1
     9    15    12    1
    10    15    16    1
    11    39    40    2
    12    12    11    1
    13    46    47   ar
    14    42    43   ar
    15     1     2    1
    16     4     3    2
    17     5     2    1
    18     5     6    1
    19    16    18   ar
    20    16    17   ar
    21    47    45   ar
    22    18    20   ar
    23    43    45   ar
    24     2     3    1
    25     7     6   ar
    26     7     9   ar
    27     6     8   ar
    28    17    19   ar
    29    20    21   ar
    30     9    10   ar
    31    69    70    2
    32    69    68    1
    33    74    72   am
    34     8    10   ar
    35    68    71    1
    36    68    67    1
    37    19    21   ar
    38    21    22    1
    39    71    72    1
    40    63    62    2
    41    72    73    2
    42   105   104   ar
    43    67    62   am
    44    62    61    1
    45   104   106   ar
    46   104   103    1
    47    36    35    1
    48    61    64    1
    49    61    60    1
    50    51    50    2
    51    64    66    1
    52    64    65    1
    53   119   117    1
    54    57    55   ar
    55    57    58   ar
    56    35    32    1
    57   103   102    1
    58   102    99    1
    59   101   100    2
    60    55    53   ar
    61    32    31    1
    62    32    33    1
    63    31    25   am
    64    26    25    2
    65    25    24    1
    66    50    60   am
    67    50    49    1
    68    59    58    1
    69    24    23    1
    70    24    27    1
    71   118   117    1
    72    58    56   ar
    73   117   114    1
    74    34    33    2
    75    53    52    1
    76    53    54   ar
    77   100    99    1
    78    52    49    1
    79    97    95   ar
    80    97    96   ar
    81    95    93   ar
    82    96    94   ar
    83    99    98    1
    84    94    93   ar
    85    93    92    1
    86    56    54   ar
    87    49    48    1
    88    92    89    1
    89    27    28    1
    90   114   113    1
    91   114   115    1
    92   113   109   am
    93    87    86    1
    94    29    28   ar
    95    28    30   ar
    96   115   116    2
    97    89    88    1
    98    89    90    1
    99    81    79    1
   100    91    90    2
   101    79    76    1
   102    79    80    1
   103    76    77    1
   104    76    75    1
   105   109   108    1
   106   109   110    2
   107    86    83    1
   108    82    77   am
   109    82    83    1
   110   108   111    1
   111   108   107    1
   112   111   112    1
   113    77    78    2
   114    83    84    1
   115    84    85    2
