@<TRIPOS>MOLECULE
tmp/1wzyA00.pdb
 175 163 0 0 0
SMALL
GASTEIGER

@<TRIPOS>ATOM
      1  N         11.2080   16.9190   45.6850 N.3    24  ILE24      -0.1245
      2  CA        10.9570   16.3550   44.3660 C.3    24  ILE24       0.1561
      3  C          9.6250   16.8110   43.7800 C.2    24  ILE24       0.2260
      4  O          9.5760   17.2580   42.6380 O.2    24  ILE24      -0.2867
      5  CB        10.9500   14.8050   44.3810 C.3    24  ILE24       0.0252
      6  CG1       12.2840   14.2650   44.8850 C.3    24  ILE24       0.0019
      7  CG2       10.7020   14.2750   42.9800 C.3    24  ILE24       0.0019
      8  CD1       12.3690   12.7580   44.8090 C.3    24  ILE24       0.0001
      9  N          7.0300   14.5260   48.1430 N.3    32  VAL32      -0.1245
     10  CA         8.0460   13.5230   47.8480 C.3    32  VAL32       0.1561
     11  C          9.4230   14.1690   47.7910 C.2    32  VAL32       0.2260
     12  O          9.6090   15.2000   47.1700 O.2    32  VAL32      -0.2867
     13  CB         7.7780   12.8170   46.4900 C.3    32  VAL32       0.0252
     14  CG1        8.8600   11.7940   46.2020 C.3    32  VAL32       0.0019
     15  CG2        6.4220   12.1460   46.5140 C.3    32  VAL32       0.0019
     16  N         13.5380    7.1420   47.4310 N.3    45  ALA45      -0.1231
     17  CA        12.5070    8.1360   47.2470 C.3    45  ALA45       0.1694
     18  C         11.5660    7.9090   48.4140 C.2    45  ALA45       0.2592
     19  O         11.3050    6.7770   48.7880 O.2    45  ALA45      -0.2718
     20  CB        11.7980    7.9120   45.9360 C.3    45  ALA45       0.0304
     21  N         11.0670    8.9850   48.9980 N.am   46  ILE46      -0.1966
     22  CA        10.1820    8.8650   50.1360 C.3    46  ILE46       0.1727
     23  C          9.1110    9.9390   50.1410 C.2    46  ILE46       0.2616
     24  O          9.3970   11.1340   50.0180 O.2    46  ILE46      -0.2715
     25  CB        10.9750    8.9260   51.4580 C.3    46  ILE46       0.0290
     26  CG1       10.0130    9.0440   52.6280 C.3    46  ILE46       0.0022
     27  CG2       11.9160   10.1150   51.4560 C.3    46  ILE46       0.0023
     28  CD1       10.6460    9.6450   53.8240 C.3    46  ILE46       0.0001
     29  N          7.8720    9.4860   50.3060 N.am   47  LYS47      -0.1977
     30  CA         6.7160   10.3480   50.3130 C.3    47  LYS47       0.1596
     31  C          6.1110   10.5120   51.6960 C.2    47  LYS47       0.2287
     32  O          5.7810    9.5330   52.3630 O.2    47  LYS47      -0.2864
     33  CB         5.6710    9.7720   49.3610 C.3    47  LYS47       0.0298
     34  CG         4.4580   10.6410   49.1090 C.3    47  LYS47       0.0038
     35  CD         3.9080   10.3580   47.7250 C.3    47  LYS47       0.0206
     36  CE         4.1530    8.9220   47.2920 C.3    47  LYS47       0.1093
     37  NZ         2.8970    8.1570   47.0260 N.3    47  LYS47      -0.1314
     38  N         -7.2390    6.7310   49.5680 N.3    60  ARG60      -0.1245
     39  CA        -6.0500    6.6260   48.7340 C.3    60  ARG60       0.1563
     40  C         -4.8680    5.9160   49.4080 C.2    60  ARG60       0.2260
     41  O         -4.2830    4.9850   48.8540 O.2    60  ARG60      -0.2867
     42  CB        -5.5950    8.0250   48.2840 C.3    60  ARG60       0.0307
     43  CG        -6.5540    8.7440   47.3390 C.3    60  ARG60       0.0489
     44  CD        -5.8310    9.7990   46.4830 C.3    60  ARG60       0.2205
     45  NE        -4.7010    9.2190   45.7580 N.pl3  60  ARG60      -0.0865
     46  CZ        -4.4140    9.4560   44.4770 C.cat  60  ARG60       0.5346
     47  NH1       -5.1730   10.2680   43.7510 N.pl3  60  ARG60       0.1354
     48  NH2       -3.3620    8.8750   43.9160 N.pl3  60  ARG60       0.1354
     49  N         -3.0470    2.4070   48.2930 N.3    64  GLU64      -0.1245
     50  CA        -1.6640    2.3370   47.8470 C.3    64  GLU64       0.1567
     51  C         -0.8320    1.3570   48.6600 C.2    64  GLU64       0.2260
     52  O         -0.1720    0.4910   48.1040 O.2    64  GLU64      -0.2867
     53  CB        -1.0020    3.7060   47.9250 C.3    64  GLU64       0.0388
     54  CG         0.4070    3.7240   47.3420 C.3    64  GLU64       0.1160
     55  CD         1.1490    5.0120   47.6380 C.2    64  GLU64       0.3649
     56  OE1        0.6220    6.0980   47.3110 O.co2  64  GLU64      -0.2457
     57  OE2        2.2640    4.9390   48.1990 O.co2  64  GLU64      -0.2457
     58  N          6.3480   -1.2090   41.5650 N.3    77  ILE77      -0.1245
     59  CA         7.1620   -0.6210   42.6160 C.3    77  ILE77       0.1561
     60  C          6.9510   -1.3400   43.9460 C.2    77  ILE77       0.2260
     61  O          5.8290   -1.6830   44.3190 O.2    77  ILE77      -0.2867
     62  CB         6.8700    0.8910   42.8170 C.3    77  ILE77       0.0252
     63  CG1        7.9930    1.5290   43.6410 C.3    77  ILE77       0.0019
     64  CG2        5.5410    1.0940   43.5390 C.3    77  ILE77       0.0019
     65  CD1        9.3570    1.5540   42.9400 C.3    77  ILE77       0.0001
     66  N          6.4390    6.8430   53.3350 N.3    96  ILE96      -0.1245
     67  CA         6.6570    5.6210   52.5730 C.3    96  ILE96       0.1561
     68  C          7.9990    5.6950   51.8610 C.2    96  ILE96       0.2260
     69  O          8.3380    6.7310   51.3050 O.2    96  ILE96      -0.2867
     70  CB         5.5610    5.4350   51.5100 C.3    96  ILE96       0.0252
     71  CG1        4.1810    5.4580   52.1730 C.3    96  ILE96       0.0019
     72  CG2        5.7770    4.1340   50.7770 C.3    96  ILE96       0.0019
     73  CD1        3.0350    5.2830   51.2060 C.3    96  ILE96       0.0001
     74  N         10.8130    3.9750   48.9860 N.3    98  GLN98      -0.1231
     75  CA        10.9260    3.1280   47.8100 C.3    98  GLN98       0.1698
     76  C         12.3130    3.3090   47.2130 C.2    98  GLN98       0.2592
     77  O         13.0480    4.2090   47.6200 O.2    98  GLN98      -0.2718
     78  CB         9.8830    3.5340   46.7570 C.3    98  GLN98       0.0381
     79  CG         8.4070    3.4410   47.1790 C.3    98  GLN98       0.0905
     80  CD         7.4390    3.9360   46.0830 C.2    98  GLN98       0.2608
     81  OE1        7.9830    4.5400   45.0370 O.2    98  GLN98      -0.2717
     82  NE2        6.2240    3.7720   46.1920 N.am   98  GLN98      -0.0878
     83  N         12.6690    2.4550   46.2550 N.am   99  ASP99      -0.1960
     84  CA        13.9610    2.5530   45.5770 C.3    99  ASP99       0.1840
     85  C         13.9130    3.7970   44.7200 C.2    99  ASP99       0.2622
     86  O         12.9430    4.0100   43.9990 O.2    99  ASP99      -0.2715
     87  CB        14.1850    1.3730   44.6250 C.3    99  ASP99       0.1450
     88  CG        14.5070    0.0890   45.3370 C.2    99  ASP99       0.3671
     89  OD1       14.2440   -0.9790   44.7490 O.co2  99  ASP99      -0.2456
     90  OD2       15.0300    0.1440   46.4680 O.co2  99  ASP99      -0.2456
     91  N         14.9450    4.6230   44.7800 N.am  100  LEU100     -0.1963
     92  CA        14.9550    5.8090   43.9380 C.3   100  LEU100      0.1728
     93  C         15.1520    5.2460   42.5330 C.2   100  LEU100      0.2616
     94  O         16.0680    4.4680   42.3070 O.2   100  LEU100     -0.2715
     95  CB        16.1180    6.7360   44.3150 C.3   100  LEU100      0.0311
     96  CG        15.9680    8.2400   44.0340 C.3   100  LEU100      0.0022
     97  CD1       17.2380    8.9780   44.4410 C.3   100  LEU100      0.0001
     98  CD2       15.6970    8.4670   42.5670 C.3   100  LEU100      0.0001
     99  N         14.2900    5.6150   41.5930 N.am  101  MET101     -0.1963
    100  CA        14.4080    5.0960   40.2330 C.3   101  MET101      0.1736
    101  C         15.3390    5.8570   39.2900 C.2   101  MET101      0.2616
    102  O         16.5110    5.4780   39.1260 O.2   101  MET101     -0.2715
    103  CB        13.0180    4.9680   39.6070 C.3   101  MET101      0.0427
    104  CG        12.2700    3.7430   40.0990 C.3   101  MET101      0.0599
    105  SD        13.1170    2.2010   39.6680 S.3   101  MET101     -0.1393
    106  CE        13.4310    1.4870   41.2850 C.3   101  MET101      0.0692
    107  N         14.8150    6.9030   38.6570 N.am  102  GLU102     -0.1963
    108  CA        15.5870    7.7230   37.7260 C.3   102  GLU102      0.1733
    109  C         14.6960    8.7340   37.0480 C.2   102  GLU102      0.2617
    110  O         14.9750    9.9180   37.0770 O.2   102  GLU102     -0.2715
    111  CB        16.2690    6.8750   36.6450 C.3   102  GLU102      0.0429
    112  CG        16.8970    7.7120   35.5160 C.3   102  GLU102      0.1163
    113  CD        18.1740    8.4610   35.9250 C.2   102  GLU102      0.3649
    114  OE1       18.1520    9.2120   36.9330 O.co2 102  GLU102     -0.2457
    115  OE2       19.2050    8.3020   35.2230 O.co2 102  GLU102     -0.2457
    116  N         13.6250    8.2630   36.4290 N.am  103  THR103     -0.1937
    117  CA        12.7050    9.1540   35.7480 C.3   103  THR103      0.2028
    118  C         11.4230    8.3990   35.4010 C.2   103  THR103      0.2642
    119  O         11.3050    7.2100   35.6700 O.2   103  THR103     -0.2714
    120  CB        13.3300    9.7070   34.4520 C.3   103  THR103      0.1808
    121  OG1       12.4850   10.7370   33.9110 O.3   103  THR103     -0.2208
    122  CG2       13.4840    8.5820   33.4250 C.3   103  THR103      0.0379
    123  N         10.4490    9.0940   34.8260 N.am  104  ASP104     -0.1971
    124  CA         9.2110    8.4420   34.4520 C.3   104  ASP104      0.1709
    125  C          9.0190    8.5250   32.9460 C.2   104  ASP104      0.2293
    126  O          9.7160    9.2770   32.2620 O.2   104  ASP104     -0.2864
    127  CB         8.0240    9.0600   35.1970 C.3   104  ASP104      0.1436
    128  CG         7.8990   10.5450   34.9680 C.2   104  ASP104      0.3671
    129  OD1        7.6750   10.9300   33.8040 O.co2 104  ASP104     -0.2456
    130  OD2        8.0150   11.3210   35.9490 O.co2 104  ASP104     -0.2456
    131  N          8.1750   11.9690   31.3110 N.3   107  LYS107     -0.1245
    132  CA         9.3120   12.8420   31.0250 C.3   107  LYS107      0.1561
    133  C         10.0790   12.3850   29.7850 C.2   107  LYS107      0.2260
    134  O         10.5500   13.2060   29.0150 O.2   107  LYS107     -0.2867
    135  CB        10.2800   12.9090   32.2080 C.3   107  LYS107      0.0271
    136  CG         9.9660   13.9490   33.2530 C.3   107  LYS107      0.0035
    137  CD         8.6370   13.6990   33.9290 C.3   107  LYS107      0.0206
    138  CE         8.5050   14.4940   35.2170 C.3   107  LYS107      0.1093
    139  NZ         9.5050   14.0760   36.2540 N.3   107  LYS107     -0.1314
    140  N          3.1830    8.9490   33.6630 N.3   146  SER146     -0.1202
    141  CA         3.7570    9.4580   34.9050 C.3   146  SER146      0.2020
    142  C          3.7440    8.4370   36.0270 C.2   146  SER146      0.2618
    143  O          4.4570    8.5810   37.0140 O.2   146  SER146     -0.2717
    144  CB         3.0070   10.7070   35.3640 C.3   146  SER146      0.2103
    145  OG         3.1810   11.7490   34.4330 O.3   146  SER146     -0.2182
    146  N          2.9150    7.4170   35.8830 N.am  147  ASN147     -0.1974
    147  CA         2.8090    6.3760   36.8900 C.3   147  ASN147      0.1688
    148  C          3.6780    5.1760   36.5700 C.2   147  ASN147      0.2292
    149  O          3.5970    4.1470   37.2420 O.2   147  ASN147     -0.2864
    150  CB         1.3490    5.9600   37.0270 C.3   147  ASN147      0.1181
    151  CG         0.5540    6.9800   37.7790 C.2   147  ASN147      0.2629
    152  OD1       -0.6680    7.0470   37.6940 O.2   147  ASN147     -0.2716
    153  ND2        1.2540    7.7880   38.5370 N.am  147  ASN147     -0.0877
    154  N          7.4980    4.2890   36.3590 N.3   149  LEU149     -0.1245
    155  CA         8.8590    4.6980   36.7100 C.3   149  LEU149      0.1561
    156  C          9.9300    3.8360   36.0770 C.2   149  LEU149      0.2260
    157  O          9.7740    2.6330   35.9300 O.2   149  LEU149     -0.2867
    158  CB         9.0540    4.6550   38.2260 C.3   149  LEU149      0.0270
    159  CG         8.6590    5.8500   39.1150 C.3   149  LEU149      0.0019
    160  CD1        7.5330    6.6670   38.4740 C.3   149  LEU149      0.0001
    161  CD2        8.2540    5.3140   40.4900 C.3   149  LEU149      0.0001
    162  N          3.5780    2.4320   39.6170 N.3   159  CYS159     -0.1221
    163  CA         3.6030    2.8890   41.0030 C.3   159  CYS159      0.1808
    164  C          2.3700    3.3410   41.7830 C.2   159  CYS159      0.2601
    165  O          2.0830    2.7800   42.8300 O.2   159  CYS159     -0.2717
    166  CB         4.6650    3.9870   41.1530 C.3   159  CYS159      0.0970
    167  SG         4.3240    5.5790   40.3400 S.3   159  CYS159     -0.0800
    168  N          1.6460    4.3420   41.3080 N.am  160  ASP160     -0.1973
    169  CA         0.5200    4.8930   42.0620 C.3   160  ASP160      0.1709
    170  C         -0.8000    4.1200   42.0690 C.2   160  ASP160      0.2293
    171  O         -1.5230    4.1090   41.0800 O.2   160  ASP160     -0.2864
    172  CB         0.2770    6.3240   41.5720 C.3   160  ASP160      0.1436
    173  CG        -0.7220    7.0750   42.4160 C.2   160  ASP160      0.3671
    174  OD1       -0.6730    6.9920   43.6720 O.co2 160  ASP160     -0.2456
    175  OD2       -1.5460    7.7790   41.8050 O.co2 160  ASP160     -0.2456
@<TRIPOS>BOND
     1   134   133    2
     2   133   132    1
     3   132   131    1
     4   132   135    1
     5   135   136    1
     6   126   125    2
     7   125   124    1
     8   136   137    1
     9   122   120    1
    10   140   141    1
    11   129   128   ar
    12   121   120    1
    13   137   138    1
    14   145   144    1
    15   120   117    1
    16   124   123    1
    17   124   127    1
    18   123   118   am
    19   141   144    1
    20   141   142    1
    21   128   127    1
    22   128   130   ar
    23   138   139    1
    24   115   113   ar
    25   118   119    2
    26   118   117    1
    27   112   113    1
    28   112   111    1
    29   117   116    1
    30   146   142   am
    31   146   147    1
    32   113   114   ar
    33   157   156    2
    34   142   143    2
    35   156   155    1
    36   154   155    1
    37   116   109   am
    38   148   147    1
    39   148   149    2
    40   111   108    1
    41   155   158    1
    42   147   150    1
    43   150   151    1
    44   109   110    2
    45   109   108    1
    46   152   151    2
    47   108   107    1
    48   151   153   am
    49   158   159    1
    50   160   159    1
    51   107   101   am
    52   159   161    1
    53   102   101    2
    54   101   100    1
    55   103   104    1
    56   103   100    1
    57   162   163    1
    58   105   104    1
    59   105   106    1
    60   100    99    1
    61   167   166    1
    62   163   166    1
    63   163   164    1
    64   171   170    2
    65   168   164   am
    66   168   169    1
    67    58    59    1
    68   172   169    1
    69   172   173    1
    70    99    93   am
    71   164   165    2
    72   175   173   ar
    73   169   170    1
    74    94    93    2
    75   173   174   ar
    76    93    92    1
    77    98    96    1
    78    59    62    1
    79    59    60    1
    80     4     3    2
    81    62    64    1
    82    62    63    1
    83    65    63    1
    84     7     5    1
    85    47    46    1
    86     3     2    1
    87    48    46    1
    88    92    95    1
    89    92    91    1
    90    60    61    2
    91    86    85    2
    92    96    95    1
    93    96    97    1
    94     2     5    1
    95     2     1    1
    96     5     6    1
    97    46    45    2
    98    87    88    1
    99    87    84    1
   100    85    91   am
   101    85    84    1
   102    89    88   ar
   103     8     6    1
   104    81    80    2
   105    88    90   ar
   106    84    83    1
   107    45    44    1
   108    20    17    1
   109    80    82   am
   110    80    79    1
   111    14    13    1
   112    83    76   am
   113    44    43    1
   114    13    15    1
   115    13    10    1
   116    78    79    1
   117    78    75    1
   118    37    36    1
   119    12    11    2
   120    76    77    2
   121    76    75    1
   122    17    16    1
   123    17    18    1
   124    36    35    1
   125    56    55   ar
   126    43    42    1
   127    54    55    1
   128    54    53    1
   129    55    57   ar
   130    35    34    1
   131    11    10    1
   132    75    74    1
   133    50    53    1
   134    50    49    1
   135    50    51    1
   136    10     9    1
   137    52    51    2
   138    42    39    1
   139    18    19    2
   140    18    21   am
   141    39    40    1
   142    39    38    1
   143    41    40    2
   144    21    22    1
   145    34    33    1
   146    33    30    1
   147    24    23    2
   148    22    23    1
   149    22    25    1
   150    23    29   am
   151    29    30    1
   152    30    31    1
   153    72    70    1
   154    73    71    1
   155    69    68    2
   156    27    25    1
   157    25    26    1
   158    70    71    1
   159    70    67    1
   160    31    32    2
   161    68    67    1
   162    67    66    1
   163    26    28    1
