@<TRIPOS>MOLECULE
tmp/1x01A00.pdb
 176 170 0 0 0
SMALL
GASTEIGER

@<TRIPOS>ATOM
      1  N        -23.4440  -10.1510   -4.5910 N.3    47  GLY47      -0.1210
      2  CA       -22.3990  -10.7690   -5.3890 C.3    47  GLY47       0.1956
      3  C        -22.9320  -11.9550   -6.1760 C.2    47  GLY47       0.2612
      4  O        -24.1380  -12.2100   -6.1760 O.2    47  GLY47      -0.2717
      5  N        -22.0400  -12.6840   -6.8440 N.am   48  ARG48      -0.1965
      6  CA       -22.4440  -13.8430   -7.6390 C.3    48  ARG48       0.1729
      7  C        -23.1240  -14.9070   -6.7790 C.2    48  ARG48       0.2616
      8  O        -24.0810  -15.5480   -7.2110 O.2    48  ARG48      -0.2715
      9  CB       -21.2330  -14.4530   -8.3630 C.3    48  ARG48       0.0348
     10  CG       -21.5930  -15.6560   -9.2280 C.3    48  ARG48       0.0492
     11  CD       -20.5120  -16.0180  -10.2430 C.3    48  ARG48       0.2205
     12  NE       -19.3460  -16.6830   -9.6630 N.pl3  48  ARG48      -0.0865
     13  CZ       -19.3880  -17.8220   -8.9780 C.cat  48  ARG48       0.5346
     14  NH1      -20.5430  -18.4390   -8.7710 N.pl3  48  ARG48       0.1354
     15  NH2      -18.2670  -18.3580   -8.5130 N.pl3  48  ARG48       0.1354
     16  N        -22.6200  -15.0870   -5.5640 N.am   49  LEU49      -0.1977
     17  CA       -23.1650  -16.0580   -4.6200 C.3    49  LEU49       0.1596
     18  C        -24.4140  -15.5060   -3.9330 C.2    49  LEU49       0.2287
     19  O        -24.9220  -16.1020   -2.9830 O.2    49  LEU49      -0.2864
     20  CB       -22.1120  -16.4140   -3.5610 C.3    49  LEU49       0.0297
     21  CG       -20.9910  -17.4220   -3.8600 C.3    49  LEU49       0.0022
     22  CD1      -20.7340  -17.5570   -5.3460 C.3    49  LEU49       0.0001
     23  CD2      -19.7330  -16.9730   -3.1430 C.3    49  LEU49       0.0001
     24  N        -24.5430  -12.9210   -2.1710 N.3    51  ARG51      -0.1231
     25  CA       -24.1370  -12.4050   -0.8700 C.3    51  ARG51       0.1694
     26  C        -24.0520  -10.8820   -0.9190 C.2    51  ARG51       0.2592
     27  O        -24.0190  -10.2950   -1.9990 O.2    51  ARG51      -0.2718
     28  CB       -22.7850  -13.0050   -0.4790 C.3    51  ARG51       0.0321
     29  CG       -22.8140  -14.5230   -0.3890 C.3    51  ARG51       0.0489
     30  CD       -21.4290  -15.1200   -0.2150 C.3    51  ARG51       0.2205
     31  NE       -21.4810  -16.5790   -0.2090 N.pl3  51  ARG51      -0.0865
     32  CZ       -20.4100  -17.3680   -0.2120 C.cat  51  ARG51       0.5346
     33  NH1      -19.1940  -16.8390   -0.2210 N.pl3  51  ARG51       0.1354
     34  NH2      -20.5560  -18.6870   -0.2120 N.pl3  51  ARG51       0.1354
     35  N        -24.0170  -10.2480    0.2480 N.am   52  LYS52      -0.1966
     36  CA       -23.9510   -8.7920    0.3250 C.3    52  LYS52       0.1728
     37  C        -22.6320   -8.2460   -0.2160 C.2    52  LYS52       0.2616
     38  O        -21.5570   -8.7380    0.1300 O.2    52  LYS52      -0.2715
     39  CB       -24.1360   -8.3310    1.7750 C.3    52  LYS52       0.0311
     40  CG       -24.3700   -6.8320    1.9350 C.3    52  LYS52       0.0038
     41  CD       -25.6720   -6.4080    1.2590 C.3    52  LYS52       0.0206
     42  CE       -25.9790   -4.9300    1.4800 C.3    52  LYS52       0.1093
     43  NZ       -24.9220   -4.0430    0.9240 N.3    52  LYS52      -0.1314
     44  N        -22.7220   -7.2330   -1.0730 N.am   53  TRP53      -0.1960
     45  CA       -21.5380   -6.6020   -1.6460 C.3    53  TRP53       0.1771
     46  C        -21.5370   -5.1250   -1.2670 C.2    53  TRP53       0.2619
     47  O        -22.4740   -4.3950   -1.5900 O.2    53  TRP53      -0.2715
     48  CB       -21.5220   -6.7620   -3.1740 C.3    53  TRP53       0.0590
     49  CG       -20.3950   -6.0210   -3.8540 C.ar   53  TRP53       0.0006
     50  CD1      -20.3330   -4.6810   -4.1160 C.ar   53  TRP53       0.0946
     51  CD2      -19.1490   -6.5740   -4.3110 C.ar   53  TRP53       0.0152
     52  NE1      -19.1290   -4.3650   -4.7030 N.ar   53  TRP53      -0.2442
     53  CE2      -18.3850   -5.5050   -4.8340 C.ar   53  TRP53       0.0810
     54  CE3      -18.6070   -7.8640   -4.3270 C.ar   53  TRP53       0.0012
     55  CZ2      -17.1010   -5.6940   -5.3660 C.ar   53  TRP53       0.0191
     56  CZ3      -17.3310   -8.0490   -4.8570 C.ar   53  TRP53       0.0001
     57  CH2      -16.5960   -6.9680   -5.3690 C.ar   53  TRP53       0.0015
     58  N        -20.4910   -4.6900   -0.5690 N.am   54  GLU54      -0.1977
     59  CA       -20.3860   -3.2940   -0.1490 C.3    54  GLU54       0.1602
     60  C        -20.1340   -2.3910   -1.3530 C.2    54  GLU54       0.2287
     61  O        -19.1850   -2.6080   -2.1150 O.2    54  GLU54      -0.2864
     62  CB       -19.2560   -3.1230    0.8700 C.3    54  GLU54       0.0415
     63  CG       -19.4340   -3.9340    2.1490 C.3    54  GLU54       0.1163
     64  CD       -20.8080   -3.7520    2.7780 C.2    54  GLU54       0.3649
     65  OE1      -21.2200   -2.5890    2.9960 O.co2  54  GLU54      -0.2457
     66  OE2      -21.4740   -4.7750    3.0560 O.co2  54  GLU54      -0.2457
     67  N        -19.4080    1.2920   -9.5230 N.3    61  TRP61      -0.1241
     68  CA       -20.4900    0.3140   -9.5190 C.3    61  TRP61       0.1605
     69  C        -21.3290    0.4750  -10.7870 C.2    61  TRP61       0.2264
     70  O        -22.0730    1.4520  -10.9360 O.2    61  TRP61      -0.2867
     71  CB       -21.3510    0.5300   -8.2740 C.3    61  TRP61       0.0550
     72  CG       -20.5480    0.9620   -7.0660 C.ar   61  TRP61       0.0003
     73  CD1      -20.6820    2.1340   -6.3660 C.ar   61  TRP61       0.0946
     74  CD2      -19.4970    0.2270   -6.4170 C.ar   61  TRP61       0.0152
     75  NE1      -19.7850    2.1700   -5.3230 N.ar   61  TRP61      -0.2442
     76  CE2      -19.0480    1.0160   -5.3290 C.ar   61  TRP61       0.0810
     77  CE3      -18.8960   -1.0190   -6.6470 C.ar   61  TRP61       0.0012
     78  CZ2      -18.0190    0.5950   -4.4690 C.ar   61  TRP61       0.0191
     79  CZ3      -17.8700   -1.4400   -5.7900 C.ar   61  TRP61       0.0001
     80  CH2      -17.4470   -0.6290   -4.7120 C.ar   61  TRP61       0.0015
     81  N         -9.2340  -14.4470  -10.5340 N.3   100  LYS100     -0.1245
     82  CA        -9.5050  -15.6280   -9.7320 C.3   100  LYS100      0.1561
     83  C        -10.7490  -16.2170  -10.3790 C.2   100  LYS100      0.2260
     84  O        -11.8250  -15.6090  -10.3460 O.2   100  LYS100     -0.2867
     85  CB        -9.8010  -15.2560   -8.2790 C.3   100  LYS100      0.0271
     86  CG       -10.4540  -16.3750   -7.4810 C.3   100  LYS100      0.0035
     87  CD       -10.7750  -15.9000   -6.0770 C.3   100  LYS100      0.0206
     88  CE       -11.9100  -16.6910   -5.4550 C.3   100  LYS100      0.1093
     89  NZ       -12.3710  -16.0240   -4.2050 N.3   100  LYS100     -0.1314
     90  N        -14.7410  -15.1480  -11.6990 N.3   103  ASN103     -0.1225
     91  CA       -15.3660  -13.8250  -11.8000 C.3   103  ASN103      0.1785
     92  C        -14.6760  -12.7210  -10.9830 C.2   103  ASN103      0.2597
     93  O        -15.1390  -11.5850  -10.9110 O.2   103  ASN103     -0.2718
     94  CB       -16.8240  -13.9620  -11.3580 C.3   103  ASN103      0.1169
     95  CG       -16.8630  -14.4280   -9.9250 C.2   103  ASN103      0.2627
     96  OD1      -16.0150  -15.1910   -9.4680 O.2   103  ASN103     -0.2716
     97  ND2      -17.8810  -13.9410   -9.1970 N.am  103  ASN103     -0.0877
     98  N        -13.5600  -13.0710  -10.3230 N.am  104  ASP104     -0.1974
     99  CA       -12.9170  -12.0780   -9.4650 C.3   104  ASP104      0.1709
    100  C        -11.5800  -11.5850  -10.0200 C.2   104  ASP104      0.2293
    101  O        -10.8790  -12.2650  -10.7570 O.2   104  ASP104     -0.2864
    102  CB       -12.7050  -12.6880   -8.0780 C.3   104  ASP104      0.1436
    103  CG       -14.0550  -13.0040   -7.4520 C.2   104  ASP104      0.3671
    104  OD1      -14.9510  -12.1650   -7.5590 O.co2 104  ASP104     -0.2456
    105  OD2      -14.1990  -14.0770   -6.8720 O.co2 104  ASP104     -0.2456
    106  N         -9.1160   -9.1350   -3.0670 N.3   111  LYS111     -0.1245
    107  CA       -10.2000   -8.7870   -3.9840 C.3   111  LYS111      0.1561
    108  C        -10.3360   -7.2890   -4.2500 C.2   111  LYS111      0.2260
    109  O        -10.5790   -6.5080   -3.3310 O.2   111  LYS111     -0.2867
    110  CB       -11.5130   -9.3420   -3.4210 C.3   111  LYS111      0.0271
    111  CG       -12.6560   -9.5150   -4.4150 C.3   111  LYS111      0.0035
    112  CD       -13.7520  -10.3480   -3.7590 C.3   111  LYS111      0.0206
    113  CE       -14.9440  -10.5690   -4.6630 C.3   111  LYS111      0.1093
    114  NZ       -15.8760  -11.5650   -4.0570 N.3   111  LYS111     -0.1314
    115  N        -13.3700   -1.5490   -6.6790 N.3   131  ASN131     -0.1240
    116  CA       -12.9980   -0.6900   -5.5600 C.3   131  ASN131      0.1653
    117  C        -11.9310    0.3000   -6.0080 C.2   131  ASN131      0.2266
    118  O        -10.8000   -0.0870   -6.3130 O.2   131  ASN131     -0.2867
    119  CB       -12.4430   -1.5190   -4.3890 C.3   131  ASN131      0.1155
    120  CG       -13.4470   -2.5040   -3.8360 C.2   131  ASN131      0.2627
    121  OD1      -14.6040   -2.1600   -3.5930 O.2   131  ASN131     -0.2716
    122  ND2      -13.0050   -3.7430   -3.6200 N.am  131  ASN131     -0.0877
    123  N        -13.0390    3.9040   -2.4630 N.3   134  ASN134     -0.1225
    124  CA       -13.9350    3.5730   -1.3640 C.3   134  ASN134      0.1785
    125  C        -13.2660    2.7050   -0.3090 C.2   134  ASN134      0.2597
    126  O        -12.2600    2.0490   -0.5780 O.2   134  ASN134     -0.2718
    127  CB       -15.1550    2.8240   -1.9040 C.3   134  ASN134      0.1169
    128  CG       -14.7640    1.6080   -2.7240 C.2   134  ASN134      0.2627
    129  OD1      -14.2020    1.7380   -3.8100 O.2   134  ASN134     -0.2716
    130  ND2      -15.0460    0.4210   -2.2000 N.am  134  ASN134     -0.0877
    131  N        -13.8310    2.7060    0.8960 N.am  135  LYS135     -0.1980
    132  CA       -13.3010    1.8730    1.9580 C.3   135  LYS135      0.1596
    133  C        -13.7400    0.4680    1.5630 C.2   135  LYS135      0.2287
    134  O        -14.7710    0.2990    0.9080 O.2   135  LYS135     -0.2864
    135  CB       -13.8930    2.2570    3.3250 C.3   135  LYS135      0.0298
    136  CG       -15.3900    2.0000    3.5000 C.3   135  LYS135      0.0038
    137  CD       -16.2090    3.2530    3.2130 C.3   135  LYS135      0.0206
    138  CE       -17.6950    3.0550    3.5060 C.3   135  LYS135      0.1093
    139  NZ       -18.4420    4.3360    3.3200 N.3   135  LYS135     -0.1314
    140  N        -13.9620   -3.9730    2.7140 N.3   137  PRO137     -0.2116
    141  CA       -13.9890   -4.9160    3.8330 C.3   137  PRO137      0.1372
    142  C        -12.6320   -5.6020    3.9710 C.2   137  PRO137      0.2244
    143  O        -11.8310   -5.5970    3.0330 O.2   137  PRO137     -0.2868
    144  CB       -15.1030   -5.8800    3.4410 C.3   137  PRO137      0.0268
    145  CG       -15.0300   -5.8810    1.9410 C.3   137  PRO137      0.0207
    146  CD       -14.8470   -4.4200    1.6240 C.3   137  PRO137      0.0892
    147  N        -10.1160   -7.3900    1.1820 N.3   140  ALA140     -0.1245
    148  CA       -10.2190   -6.7410   -0.1160 C.3   140  ALA140      0.1562
    149  C         -9.2090   -5.6180   -0.2070 C.2   140  ALA140      0.2260
    150  O         -8.4960   -5.3350    0.7480 O.2   140  ALA140     -0.2867
    151  CB       -11.6140   -6.1870   -0.3040 C.3   140  ALA140      0.0290
    152  N        -17.7500  -22.4280   -5.4290 N.3   231  SER231     -0.1202
    153  CA       -16.8260  -21.4400   -4.8900 C.3   231  SER231      0.2020
    154  C        -15.3950  -21.9660   -4.8740 C.2   231  SER231      0.2619
    155  O        -15.1500  -23.1220   -4.5390 O.2   231  SER231     -0.2717
    156  CB       -17.2580  -21.0430   -3.4780 C.3   231  SER231      0.2103
    157  OG       -18.5660  -20.4960   -3.4950 O.3   231  SER231     -0.2182
    158  N        -14.4540  -21.1080   -5.2490 N.am  232  LEU232     -0.1965
    159  CA       -13.0500  -21.4830   -5.2820 C.3   232  LEU232      0.1728
    160  C        -12.2860  -20.8060   -4.1550 C.2   232  LEU232      0.2616
    161  O        -12.3770  -19.5930   -3.9660 O.2   232  LEU232     -0.2715
    162  CB       -12.4400  -21.1060   -6.6360 C.3   232  LEU232      0.0311
    163  CG       -10.9650  -21.4370   -6.8790 C.3   232  LEU232      0.0022
    164  CD1      -10.7010  -21.4870   -8.3750 C.3   232  LEU232      0.0001
    165  CD2      -10.0700  -20.4040   -6.1920 C.3   232  LEU232      0.0001
    166  N        -11.5390  -21.6060   -3.4040 N.am  233  ARG233     -0.1977
    167  CA       -10.7380  -21.1110   -2.2900 C.3   233  ARG233      0.1597
    168  C         -9.2740  -21.4710   -2.4830 C.2   233  ARG233      0.2287
    169  O         -8.9410  -22.6320   -2.7120 O.2   233  ARG233     -0.2864
    170  CB       -11.2210  -21.7160   -0.9670 C.3   233  ARG233      0.0334
    171  CG       -12.4660  -21.0690   -0.3990 C.3   233  ARG233      0.0492
    172  CD       -12.1660  -19.6850    0.1660 C.3   233  ARG233      0.2205
    173  NE       -13.3820  -19.0000    0.6030 N.pl3 233  ARG233     -0.0865
    174  CZ       -14.2120  -19.4580    1.5370 C.cat 233  ARG233      0.5346
    175  NH1      -13.9670  -20.6090    2.1510 N.pl3 233  ARG233      0.1354
    176  NH2      -15.2980  -18.7660    1.8510 N.pl3 233  ARG233      0.1354
@<TRIPOS>BOND
     1    91    90    1
     2    91    94    1
     3    91    92    1
     4    94    95    1
     5    92    93    2
     6    92    98   am
     7    70    69    2
     8    69    68    1
     9   101   100    2
    10    81    82    1
    11    83    84    2
    12    83    82    1
    13    98    99    1
    14    11    12    1
    15    11    10    1
    16   100    99    1
    17    95    96    2
    18    95    97   am
    19    82    85    1
    20    12    13    2
    21    67    68    1
    22    68    71    1
    23    99   102    1
    24    10     9    1
    25    13    14    1
    26    13    15    1
    27   164   163    1
    28     9     6    1
    29    85    86    1
    30    71    72    1
    31   102   103    1
    32     6     5    1
    33     6     7    1
    34   104   103   ar
    35    86    87    1
    36   103   105   ar
    37     8     7    2
    38    72    74   ar
    39    72    73   ar
    40   163   162    1
    41   163   165    1
    42     5     3   am
    43     7    16   am
    44   115   116    1
    45    77    74   ar
    46    77    79   ar
    47   162   159    1
    48    74    76   ar
    49    73    75   ar
    50   118   117    2
    51     4     3    2
    52     3     2    1
    53    87    88    1
    54   117   116    1
    55    79    80   ar
    56    16    17    1
    57   116   119    1
    58    88    89    1
    59   152   153    1
    60     2     1    1
    61    57    55   ar
    62    57    56   ar
    63    55    53   ar
    64    22    21    1
    65    76    75   ar
    66    76    78   ar
    67   159   158    1
    68   159   160    1
    69   158   154   am
    70   153   154    1
    71   153   156    1
    72   154   155    2
    73    56    54   ar
    74    53    52   ar
    75    53    51   ar
    76    80    78   ar
    77    52    50   ar
    78   113   114    1
    79   113   112    1
    80    17    18    1
    81    17    20    1
    82   111   112    1
    83   111   110    1
    84   119   120    1
    85    54    51   ar
    86    51    49   ar
    87   108   107    1
    88   108   109    2
    89   160   161    2
    90   160   166   am
    91    50    49   ar
    92   107   110    1
    93   107   106    1
    94    18    19    2
    95    21    20    1
    96    21    23    1
    97    49    48    1
    98   120   122   am
    99   120   121    2
   100   129   128    2
   101   157   156    1
   102   166   167    1
   103    48    45    1
   104   128   130   am
   105   128   127    1
   106   169   168    2
   107   168   167    1
   108   123   124    1
   109   167   170    1
   110    24    25    1
   111    61    60    2
   112    27    26    2
   113   127   124    1
   114    45    46    1
   115    45    44    1
   116    47    46    2
   117   124   125    1
   118    60    59    1
   119    46    58   am
   120    44    37   am
   121   170   171    1
   122    26    25    1
   123    26    35   am
   124    25    28    1
   125   126   125    2
   126    58    59    1
   127    28    29    1
   128   171   172    1
   129    29    30    1
   130   125   131   am
   131   151   148    1
   132    33    32    1
   133    37    38    2
   134    37    36    1
   135    30    31    1
   136    34    32    1
   137    32    31    2
   138   149   148    1
   139   149   150    2
   140    59    62    1
   141   148   147    1
   142   172   173    1
   143    35    36    1
   144    36    39    1
   145   173   174    2
   146    62    63    1
   147   131   132    1
   148   134   133    2
   149    43    42    1
   150    41    42    1
   151    41    40    1
   152   174   176    1
   153   174   175    1
   154   133   132    1
   155   146   145    1
   156   146   140    1
   157    39    40    1
   158   145   144    1
   159   132   135    1
   160    63    64    1
   161   140   141    1
   162    64    65   ar
   163    64    66   ar
   164   143   142    2
   165   137   136    1
   166   137   138    1
   167   139   138    1
   168   135   136    1
   169   144   141    1
   170   141   142    1
