@<TRIPOS>MOLECULE
tmp/1x06A00.pdb
 195 188 0 0 0
SMALL
GASTEIGER

@<TRIPOS>ATOM
      1  N         21.0250   12.0500   26.2980 N.3    14  MET14      -0.1230
      2  CA        20.0300   13.0890   26.6510 C.3    14  MET14       0.1702
      3  C         19.6270   13.9570   25.4580 C.2    14  MET14       0.2592
      4  O         19.8770   15.1510   25.4360 O.2    14  MET14      -0.2718
      5  CB        20.6580   13.9890   27.7490 C.3    14  MET14       0.0401
      6  CG        21.0900   13.2230   29.0010 C.3    14  MET14       0.0596
      7  SD        21.8170   14.2980   30.2900 S.3    14  MET14      -0.1393
      8  CE        23.2360   14.9050   29.4060 C.3    14  MET14       0.0692
      9  N         18.9930   13.3610   24.4690 N.am   15  ASP15      -0.1960
     10  CA        18.6520   14.0980   23.2700 C.3    15  ASP15       0.1840
     11  C         17.2330   14.6360   23.2760 C.2    15  ASP15       0.2623
     12  O         16.3560   14.1540   24.0200 O.2    15  ASP15      -0.2715
     13  CB        18.8830   13.1220   22.0790 C.3    15  ASP15       0.1450
     14  CG        18.8780   13.8080   20.7050 C.2    15  ASP15       0.3671
     15  OD1       19.2100   15.0200   20.5820 O.co2  15  ASP15      -0.2456
     16  OD2       18.5290   13.0970   19.7450 O.co2  15  ASP15      -0.2456
     17  N         17.0070   15.6360   22.4430 N.am   16  GLY16      -0.1940
     18  CA        15.6550   16.1600   22.3550 C.3    16  GLY16       0.2014
     19  C         15.4390   17.5500   22.9150 C.2    16  GLY16       0.2639
     20  O         14.3180   18.0530   22.8270 O.2    16  GLY16      -0.2714
     21  N         16.4870   18.1910   23.4450 N.am   17  ASN17      -0.1958
     22  CA        16.3310   19.5300   24.0140 C.3    17  ASN17       0.1819
     23  C         15.9660   20.5960   23.0100 C.2    17  ASN17       0.2622
     24  O         15.1540   21.4770   23.3360 O.2    17  ASN17      -0.2715
     25  CB        17.5810   19.9310   24.7940 C.3    17  ASN17       0.1195
     26  CG        18.0170   18.8210   25.7600 C.2    17  ASN17       0.2630
     27  OD1       17.4290   18.5830   26.7690 O.2    17  ASN17      -0.2716
     28  ND2       19.0250   18.0690   25.3350 N.am   17  ASN17      -0.0877
     29  N         16.5340   20.5120   21.7990 N.am   18  GLY18      -0.1940
     30  CA        16.2600   21.5140   20.7860 C.3    18  GLY18       0.2014
     31  C         14.8250   21.4520   20.3240 C.2    18  GLY18       0.2638
     32  O         14.1340   22.4630   20.1870 O.2    18  GLY18      -0.2714
     33  N         14.3630   20.2400   20.0660 N.am   19  ARG19      -0.1977
     34  CA        13.0120   20.0350   19.6220 C.3    19  ARG19       0.1597
     35  C         12.0360   20.4300   20.7040 C.2    19  ARG19       0.2287
     36  O         10.9590   20.9650   20.4090 O.2    19  ARG19      -0.2864
     37  CB        12.8010   18.5670   19.2710 C.3    19  ARG19       0.0334
     38  CG        13.0220   18.2470   17.7870 C.3    19  ARG19       0.0492
     39  CD        13.1330   16.7680   17.6610 C.3    19  ARG19       0.2205
     40  NE        14.3690   16.3370   18.3310 N.pl3  19  ARG19      -0.0865
     41  CZ        14.7530   15.0610   18.4410 C.cat  19  ARG19       0.5346
     42  NH1       13.9890   14.1030   17.9390 N.pl3  19  ARG19       0.1354
     43  NH2       15.9210   14.7450   18.9810 N.pl3  19  ARG19       0.1354
     44  N         17.1300   26.6990   21.0860 N.3    28  ARG28      -0.1245
     45  CA        17.7420   25.5190   21.6590 C.3    28  ARG28       0.1563
     46  C         18.3370   25.6860   23.0480 C.2    28  ARG28       0.2260
     47  O         18.2470   24.7650   23.8800 O.2    28  ARG28      -0.2867
     48  CB        18.8250   25.0320   20.7180 C.3    28  ARG28       0.0307
     49  CG        18.2990   24.7670   19.3240 C.3    28  ARG28       0.0489
     50  CD        19.4710   24.3570   18.4480 C.3    28  ARG28       0.2205
     51  NE        20.0440   23.0840   18.8770 N.pl3  28  ARG28      -0.0865
     52  CZ        19.5560   21.9080   18.5210 C.cat  28  ARG28       0.5346
     53  NH1       18.4760   21.8360   17.7340 N.pl3  28  ARG28       0.1354
     54  NH2       20.1790   20.8070   18.9080 N.pl3  28  ARG28       0.1354
     55  N         18.2980   23.4680   26.4820 N.3    32  HIS32      -0.1241
     56  CA        19.4690   22.9170   27.1760 C.3    32  HIS32       0.1621
     57  C         19.3700   23.2740   28.6800 C.2    32  HIS32       0.2264
     58  O         19.6910   22.4500   29.5510 O.2    32  HIS32      -0.2867
     59  CB        20.8030   23.4490   26.5450 C.3    32  HIS32       0.0745
     60  CG        21.1240   22.8410   25.1850 C.ar   32  HIS32       0.0817
     61  ND1       21.7440   23.5450   24.1760 N.ar   32  HIS32      -0.2268
     62  CD2       20.9060   21.5970   24.6850 C.ar   32  HIS32       0.1154
     63  CE1       21.8990   22.7670   23.1130 C.ar   32  HIS32       0.1986
     64  NE2       21.3960   21.5730   23.3980 N.ar   32  HIS32      -0.2212
     65  N         17.0650   21.0330   30.1870 N.3    35  GLY35      -0.1210
     66  CA        17.6780   19.7010   30.2490 C.3    35  GLY35       0.1956
     67  C         18.4930   19.5550   31.5430 C.2    35  GLY35       0.2611
     68  O         18.5990   18.4630   32.1100 O.2    35  GLY35      -0.2717
     69  N         19.0500   20.6740   32.0290 N.am   36  ALA36      -0.1979
     70  CA        19.8230   20.6530   33.2790 C.3    36  ALA36       0.1597
     71  C         18.8860   20.2680   34.4350 C.2    36  ALA36       0.2287
     72  O         19.3070   19.6310   35.3700 O.2    36  ALA36      -0.2864
     73  CB        20.4190   22.0170   33.5270 C.3    36  ALA36       0.0319
     74  N         18.5700   16.5950   34.2830 N.3    39  VAL39      -0.1245
     75  CA        19.8090   15.9820   34.8170 C.3    39  VAL39       0.1561
     76  C         19.6920   15.8900   36.3570 C.2    39  VAL39       0.2260
     77  O         19.8850   14.7940   36.9410 O.2    39  VAL39      -0.2867
     78  CB        21.0940   16.7750   34.4440 C.3    39  VAL39       0.0252
     79  CG1       22.3590   16.2010   35.2050 C.3    39  VAL39       0.0019
     80  CG2       21.3780   16.5900   33.0010 C.3    39  VAL39       0.0019
     81  N         26.3340   10.2780   31.6290 N.3    56  LEU56      -0.1231
     82  CA        25.4820   11.1650   30.8200 C.3    56  LEU56       0.1693
     83  C         26.2230   11.7800   29.6690 C.2    56  LEU56       0.2592
     84  O         27.2780   12.3560   29.8790 O.2    56  LEU56      -0.2718
     85  CB        24.9350   12.3040   31.7040 C.3    56  LEU56       0.0284
     86  CG        24.2300   11.7920   32.9850 C.3    56  LEU56       0.0019
     87  CD1       23.6920   12.9640   33.8070 C.3    56  LEU56       0.0001
     88  CD2       23.0240   10.9220   32.5800 C.3    56  LEU56       0.0001
     89  N         25.6690   11.6540   28.4580 N.am   57  TYR57      -0.1962
     90  CA        26.3190   12.2070   27.2660 C.3    57  TYR57       0.1771
     91  C         25.9270   13.6900   27.1950 C.2    57  TYR57       0.2619
     92  O         24.8580   14.0400   26.6710 O.2    57  TYR57      -0.2715
     93  CB        25.8210   11.4500   26.0350 C.3    57  TYR57       0.0574
     94  CG        26.7510   11.4980   24.8480 C.ar   57  TYR57      -0.0198
     95  CD1       26.3290   10.9780   23.6240 C.ar   57  TYR57      -0.0009
     96  CD2       28.0770   11.9960   24.9520 C.ar   57  TYR57      -0.0009
     97  CE1       27.1640   10.9330   22.5290 C.ar   57  TYR57       0.0417
     98  CE2       28.9560   11.9450   23.8420 C.ar   57  TYR57       0.0417
     99  CZ        28.4720   11.3970   22.6420 C.ar   57  TYR57       0.1957
    100  OH        29.2370   11.2020   21.5270 O.3    57  TYR57      -0.2866
    101  N         26.7690   14.5430   27.7500 N.am   58  ALA58      -0.1963
    102  CA        26.4780   15.9770   27.8550 C.3    58  ALA58       0.1728
    103  C         27.0740   16.8080   26.6960 C.2    58  ALA58       0.2616
    104  O         26.5110   17.8370   26.3020 O.2    58  ALA58      -0.2715
    105  CB        27.0020   16.4960   29.1920 C.3    58  ALA58       0.0334
    106  N         28.1760   16.3660   26.1220 N.am   59  PHE59      -0.1960
    107  CA        28.7320   17.1430   24.9900 C.3    59  PHE59       0.1771
    108  C         29.5500   16.2040   24.1400 C.2    59  PHE59       0.2620
    109  O         30.6020   15.7610   24.5580 O.2    59  PHE59      -0.2715
    110  CB        29.6280   18.2920   25.5170 C.3    59  PHE59       0.0574
    111  CG        30.0650   19.2750   24.4330 C.ar   59  PHE59      -0.0200
    112  CD1       31.3310   19.1700   23.8330 C.ar   59  PHE59      -0.0042
    113  CD2       29.2070   20.2870   24.0040 C.ar   59  PHE59      -0.0042
    114  CE1       31.7330   20.0590   22.8240 C.ar   59  PHE59      -0.0003
    115  CE2       29.6090   21.1920   22.9770 C.ar   59  PHE59      -0.0003
    116  CZ        30.8630   21.0660   22.4030 C.ar   59  PHE59      -0.0000
    117  N         29.0090   15.8610   22.9800 N.am   60  SER60      -0.1950
    118  CA        29.6890   14.9900   22.0700 C.3    60  SER60       0.1924
    119  C         30.8560   15.7820   21.4660 C.2    60  SER60       0.2314
    120  O         30.8000   17.0140   21.3810 O.2    60  SER60      -0.2863
    121  CB        28.7400   14.5520   20.9330 C.3    60  SER60       0.2116
    122  OG        29.5830   14.0830   19.8960 O.3    60  SER60      -0.2180
    123  N         29.8830   18.0190   18.5950 N.3    63  ASN63      -0.1240
    124  CA        29.0620   19.2160   18.7950 C.3    63  ASN63       0.1653
    125  C         29.8600   20.4990   18.6750 C.2    63  ASN63       0.2266
    126  O         29.2970   21.5710   18.8490 O.2    63  ASN63      -0.2867
    127  CB        28.3490   19.1940   20.1570 C.3    63  ASN63       0.1155
    128  CG        27.3250   18.0410   20.2800 C.2    63  ASN63       0.2627
    129  OD1       27.0540   17.5590   21.3910 O.2    63  ASN63      -0.2716
    130  ND2       26.7730   17.5950   19.1580 N.am   63  ASN63      -0.0877
    131  N         28.4970   22.9610   16.0850 N.3    66  ARG66      -0.1245
    132  CA        27.2070   23.6140   16.2230 C.3    66  ARG66       0.1563
    133  C         27.4550   25.1110   16.2290 C.2    66  ARG66       0.2260
    134  O         28.6060   25.5260   16.2690 O.2    66  ARG66      -0.2867
    135  CB        26.5580   23.1990   17.5270 C.3    66  ARG66       0.0307
    136  CG        26.1470   21.7490   17.4890 C.3    66  ARG66       0.0489
    137  CD        25.2120   21.4500   18.5940 C.3    66  ARG66       0.2205
    138  NE        24.6390   20.1270   18.4210 N.pl3  66  ARG66      -0.0865
    139  CZ        23.6410   19.6560   19.1700 C.cat  66  ARG66       0.5346
    140  NH1       23.1330   20.4150   20.1260 N.pl3  66  ARG66       0.1354
    141  NH2       23.1380   18.4440   18.9470 N.pl3  66  ARG66       0.1354
    142  N         26.4700   26.4030   26.0570 N.3    74  LEU74      -0.1245
    143  CA        26.6430   25.0770   26.6650 C.3    74  LEU74       0.1561
    144  C         27.7960   25.1540   27.6690 C.2    74  LEU74       0.2260
    145  O         27.6700   24.7120   28.7950 O.2    74  LEU74      -0.2867
    146  CB        26.9470   24.0280   25.5790 C.3    74  LEU74       0.0270
    147  CG        25.6820   23.4950   24.8570 C.3    74  LEU74       0.0019
    148  CD1       26.0400   22.6050   23.6590 C.3    74  LEU74       0.0001
    149  CD2       24.8650   22.6800   25.8700 C.3    74  LEU74       0.0001
    150  N         26.7400   26.8410   30.7170 N.3    77  LEU77      -0.1231
    151  CA        25.8220   25.9820   31.5020 C.3    77  LEU77       0.1693
    152  C         26.6570   24.9340   32.2860 C.2    77  LEU77       0.2592
    153  O         26.3730   24.5980   33.4230 O.2    77  LEU77      -0.2718
    154  CB        24.8280   25.2910   30.5430 C.3    77  LEU77       0.0284
    155  CG        23.6700   24.4950   31.1710 C.3    77  LEU77       0.0019
    156  CD1       22.7770   25.4060   32.0610 C.3    77  LEU77       0.0001
    157  CD2       22.8160   23.9010   30.0740 C.3    77  LEU77       0.0001
    158  N         27.6760   24.3900   31.6490 N.am   78  PHE78      -0.1976
    159  CA        28.5320   23.4220   32.3420 C.3    78  PHE78       0.1639
    160  C         29.2060   24.0810   33.5510 C.2    78  PHE78       0.2290
    161  O         29.2940   23.5200   34.6660 O.2    78  PHE78      -0.2864
    162  CB        29.5940   22.8930   31.3530 C.3    78  PHE78       0.0560
    163  CG        29.0170   22.0630   30.2580 C.ar   78  PHE78      -0.0200
    164  CD1       27.8410   21.3150   30.4790 C.ar   78  PHE78      -0.0042
    165  CD2       29.6460   21.9600   29.0070 C.ar   78  PHE78      -0.0042
    166  CE1       27.3130   20.4770   29.4760 C.ar   78  PHE78      -0.0003
    167  CE2       29.1190   21.1300   27.9930 C.ar   78  PHE78      -0.0003
    168  CZ        27.9420   20.3840   28.2390 C.ar   78  PHE78      -0.0000
    169  N         26.6970   24.6490   36.2670 N.3    81  ALA81      -0.1245
    170  CA        26.2840   23.4210   36.9410 C.3    81  ALA81       0.1562
    171  C         27.3400   22.9830   37.9250 C.2    81  ALA81       0.2260
    172  O         27.0110   22.5350   39.0120 O.2    81  ALA81      -0.2867
    173  CB        26.0100   22.3080   35.8930 C.3    81  ALA81       0.0290
    174  N         30.1500   12.4190   33.6840 N.3   130  ILE130     -0.1245
    175  CA        29.6370   13.3960   32.7210 C.3   130  ILE130      0.1561
    176  C         30.5630   13.2780   31.5000 C.2   130  ILE130      0.2260
    177  O         31.7630   13.5690   31.6040 O.2   130  ILE130     -0.2867
    178  CB        29.7010   14.8490   33.2750 C.3   130  ILE130      0.0252
    179  CG1       28.8310   14.9820   34.5470 C.3   130  ILE130      0.0019
    180  CG2       29.2960   15.8490   32.1290 C.3   130  ILE130      0.0019
    181  CD1       27.4430   14.4650   34.4650 C.3   130  ILE130      0.0001
    182  N         14.2810   14.8140   26.2210 N.3   210  TRP210     -0.1241
    183  CA        15.0810   14.8770   27.4840 C.3   210  TRP210      0.1605
    184  C         14.5200   15.8040   28.5910 C.2   210  TRP210      0.2264
    185  O         14.3970   15.3870   29.7570 O.2   210  TRP210     -0.2867
    186  CB        16.5660   15.2570   27.1570 C.3   210  TRP210      0.0550
    187  CG        17.4100   15.2660   28.4270 C.ar  210  TRP210      0.0003
    188  CD1       18.0080   16.3430   28.9650 C.ar  210  TRP210      0.0946
    189  CD2       17.5340   14.2020   29.4050 C.ar  210  TRP210      0.0152
    190  NE1       18.4880   16.0490   30.2260 N.ar  210  TRP210     -0.2442
    191  CE2       18.2120   14.7360   30.5160 C.ar  210  TRP210      0.0810
    192  CE3       17.1320   12.8590   29.4450 C.ar  210  TRP210      0.0012
    193  CZ2       18.5190   13.9670   31.6710 C.ar  210  TRP210      0.0191
    194  CZ3       17.4170   12.0930   30.5770 C.ar  210  TRP210      0.0001
    195  CH2       18.1150   12.6520   31.6760 C.ar  210  TRP210      0.0015
@<TRIPOS>BOND
     1   131   132    1
     2   132   133    1
     3   132   135    1
     4   133   134    2
     5   136   135    1
     6   136   137    1
     7    39    38    1
     8    39    40    1
     9    53    52    1
    10    38    37    1
    11    42    41    1
    12    40    41    2
    13   138   137    1
    14   138   139    2
    15    41    43    1
    16    50    51    1
    17    50    49    1
    18    52    51    2
    19    52    54    1
    20   123   124    1
    21   125   124    1
    22   125   126    2
    23   124   127    1
    24   141   139    1
    25   130   128   am
    26   139   140    1
    27    37    34    1
    28    49    48    1
    29    34    33    1
    30    34    35    1
    31    16    14   ar
    32   122   121    1
    33    33    31   am
    34   127   128    1
    35    32    31    2
    36   128   129    2
    37    31    30    1
    38    36    35    2
    39    15    14   ar
    40    14    13    1
    41    48    45    1
    42    30    29    1
    43   121   118    1
    44    44    45    1
    45   120   119    2
    46   119   118    1
    47   100    99    1
    48    45    46    1
    49    29    23   am
    50   118   117    1
    51    13    10    1
    52    18    17    1
    53    18    19    1
    54   116   114   ar
    55   116   115   ar
    56    17    11   am
    57    97    99   ar
    58    97    95   ar
    59    99    98   ar
    60   114   112   ar
    61    20    19    2
    62    19    21   am
    63   115   113   ar
    64   117   108   am
    65    23    24    2
    66    23    22    1
    67    46    47    2
    68    63    64   ar
    69    63    61   ar
    70    10    11    1
    71    10     9    1
    72    11    12    2
    73    64    62   ar
    74    21    22    1
    75    95    94   ar
    76   148   147    1
    77   112   111   ar
    78    98    96   ar
    79   113   111   ar
    80    22    25    1
    81   108   109    2
    82   108   107    1
    83    61    60   ar
    84   111   110    1
    85     9     3   am
    86    62    60   ar
    87    25    26    1
    88    94    96   ar
    89    94    93    1
    90   147   146    1
    91   147   149    1
    92   107   110    1
    93   107   106    1
    94    60    59    1
    95    28    26   am
    96     4     3    2
    97     3     2    1
    98   146   143    1
    99    26    27    2
   100    93    90    1
   101   142   143    1
   102   106   103   am
   103   182   183    1
   104     1     2    1
   105   104   103    2
   106    55    56    1
   107    59    56    1
   108     2     5    1
   109   143   144    1
   110    92    91    2
   111   103   102    1
   112   186   183    1
   113   186   187    1
   114    56    57    1
   115    91    90    1
   116    91   101   am
   117    90    89    1
   118   183   184    1
   119   144   145    2
   120     5     6    1
   121   101   102    1
   122   102   105    1
   123   167   168   ar
   124   167   165   ar
   125   168   166   ar
   126   187   188   ar
   127   187   189   ar
   128    89    83   am
   129   184   185    2
   130    57    58    2
   131   188   190   ar
   132     6     7    1
   133   165   163   ar
   134   189   192   ar
   135   189   191   ar
   136     8     7    1
   137   192   194   ar
   138   166   164   ar
   139    83    84    2
   140    83    82    1
   141   157   155    1
   142    65    66    1
   143   190   191   ar
   144    66    67    1
   145   163   164   ar
   146   163   162    1
   147   191   193   ar
   148   154   155    1
   149   154   151    1
   150   194   195   ar
   151   150   151    1
   152    82    81    1
   153    82    85    1
   154   155   156    1
   155   162   159    1
   156   176   177    2
   157   176   175    1
   158   151   152    1
   159    67    69   am
   160    67    68    2
   161   158   152   am
   162   158   159    1
   163   193   195   ar
   164    85    86    1
   165    69    70    1
   166   180   178    1
   167   152   153    2
   168   159   160    1
   169    88    86    1
   170   175   178    1
   171   175   174    1
   172    86    87    1
   173    80    78    1
   174   178   179    1
   175    70    73    1
   176    70    71    1
   177   160   161    2
   178    74    75    1
   179    71    72    2
   180    78    75    1
   181    78    79    1
   182   181   179    1
   183    75    76    1
   184   173   170    1
   185   169   170    1
   186    76    77    2
   187   170   171    1
   188   171   172    2
