@<TRIPOS>MOLECULE
tmp/1x07A00.pdb
 119 115 0 0 0
SMALL
GASTEIGER

@<TRIPOS>ATOM
      1  N         20.9490   12.0370   26.4250 N.3    16  MET16      -0.1230
      2  CA        20.0000   13.1280   26.6810 C.3    16  MET16       0.1702
      3  C         19.6640   14.0040   25.4530 C.2    16  MET16       0.2592
      4  O         19.9700   15.1800   25.3910 O.2    16  MET16      -0.2718
      5  CB        20.5530   14.0260   27.7950 C.3    16  MET16       0.0401
      6  CG        21.0340   13.2170   29.0100 C.3    16  MET16       0.0596
      7  SD        21.6750   14.2370   30.3170 S.3    16  MET16      -0.1393
      8  CE        23.1750   14.8750   29.5960 C.3    16  MET16       0.0692
      9  N         18.9500   13.4350   24.5230 N.am   17  ASP17      -0.1960
     10  CA        18.6120   14.1130   23.3210 C.3    17  ASP17       0.1840
     11  C         17.1650   14.6080   23.2880 C.2    17  ASP17       0.2623
     12  O         16.2790   14.0420   23.9560 O.2    17  ASP17      -0.2715
     13  CB        18.9080   13.1300   22.1610 C.3    17  ASP17       0.1450
     14  CG        18.8850   13.7670   20.8230 C.2    17  ASP17       0.3671
     15  OD1       19.4340   14.8700   20.6960 O.co2  17  ASP17      -0.2456
     16  OD2       18.3390   13.1320   19.8600 O.co2  17  ASP17      -0.2456
     17  N         16.9740   15.6830   22.5140 N.am   18  GLY18      -0.1940
     18  CA        15.6740   16.2970   22.2880 C.3    18  GLY18       0.2014
     19  C         15.4680   17.6710   22.8690 C.2    18  GLY18       0.2639
     20  O         14.3810   18.1740   22.8460 O.2    18  GLY18      -0.2714
     21  N         16.5180   18.2810   23.3970 N.am   19  ASN19      -0.1958
     22  CA        16.4240   19.5920   24.0160 C.3    19  ASN19       0.1819
     23  C         15.9250   20.6630   23.0480 C.2    19  ASN19       0.2622
     24  O         15.0600   21.4890   23.4130 O.2    19  ASN19      -0.2715
     25  CB        17.7950   20.0530   24.5230 C.3    19  ASN19       0.1195
     26  CG        18.2750   19.3320   25.7700 C.2    19  ASN19       0.2630
     27  OD1       17.3810   18.7810   26.5510 O.2    19  ASN19      -0.2716
     28  ND2       19.4890   19.3170   26.0340 N.am   19  ASN19      -0.0877
     29  N         16.5560   20.6830   21.8670 N.am   20  GLY20      -0.1940
     30  CA        16.2880   21.6460   20.8060 C.3    20  GLY20       0.2014
     31  C         14.8530   21.5990   20.3540 C.2    20  GLY20       0.2638
     32  O         14.1620   22.6220   20.3480 O.2    20  GLY20      -0.2714
     33  N         14.4040   20.4040   19.9840 N.am   21  ARG21      -0.1977
     34  CA        13.0150   20.1680   19.5650 C.3    21  ARG21       0.1597
     35  C         12.0300   20.5670   20.6570 C.2    21  ARG21       0.2287
     36  O         10.9760   21.1150   20.3700 O.2    21  ARG21      -0.2864
     37  CB        12.8080   18.6800   19.2270 C.3    21  ARG21       0.0334
     38  CG        12.9680   18.3560   17.7220 C.3    21  ARG21       0.0492
     39  CD        13.0680   16.8770   17.4890 C.3    21  ARG21       0.2205
     40  NE        14.2830   16.3910   18.1110 N.pl3  21  ARG21      -0.0865
     41  CZ        14.5000   15.1350   18.4770 C.cat  21  ARG21       0.5346
     42  NH1       13.5550   14.2060   18.2840 N.pl3  21  ARG21       0.1354
     43  NH2       15.6680   14.8030   19.0180 N.pl3  21  ARG21       0.1354
     44  N         16.8060   27.3590   21.1770 N.3    30  ARG30      -0.1245
     45  CA        17.4350   26.1110   21.5500 C.3    30  ARG30       0.1563
     46  C         18.0570   26.0730   22.9610 C.2    30  ARG30       0.2260
     47  O         17.9730   25.0530   23.6700 O.2    30  ARG30      -0.2867
     48  CB        18.4860   25.8050   20.4890 C.3    30  ARG30       0.0307
     49  CG        19.1500   24.4950   20.6190 C.3    30  ARG30       0.0489
     50  CD        19.9270   24.1850   19.3140 C.3    30  ARG30       0.2205
     51  NE        20.1090   22.7410   19.2050 N.pl3  30  ARG30      -0.0865
     52  CZ        19.2470   21.9340   18.6150 C.cat  30  ARG30       0.5346
     53  NH1       18.1360   22.4230   18.0520 N.pl3  30  ARG30       0.1354
     54  NH2       19.4840   20.6320   18.6110 N.pl3  30  ARG30       0.1354
     55  N         18.1190   23.5610   26.5630 N.3    34  HIS34      -0.1241
     56  CA        19.3010   23.0070   27.2480 C.3    34  HIS34       0.1621
     57  C         19.2260   23.3480   28.7510 C.2    34  HIS34       0.2264
     58  O         19.6440   22.5430   29.6150 O.2    34  HIS34      -0.2867
     59  CB        20.5990   23.5460   26.6300 C.3    34  HIS34       0.0745
     60  CG        20.9330   22.9400   25.3090 C.ar   34  HIS34       0.0817
     61  ND1       21.4120   23.6800   24.2460 N.ar   34  HIS34      -0.2268
     62  CD2       20.8650   21.6620   24.8720 C.ar   34  HIS34       0.1154
     63  CE1       21.6200   22.8870   23.2120 C.ar   34  HIS34       0.1986
     64  NE2       21.2930   21.6540   23.5630 N.ar   34  HIS34      -0.2212
     65  N         25.3230   11.5070   28.5970 N.3    59  TYR59      -0.1227
     66  CA        25.9190   12.0690   27.3760 C.3    59  TYR59       0.1736
     67  C         25.4530   13.4980   27.2470 C.2    59  TYR59       0.2595
     68  O         24.3310   13.7380   26.8220 O.2    59  TYR59      -0.2718
     69  CB        25.4880   11.2720   26.1580 C.3    59  TYR59       0.0548
     70  CG        26.4430   11.3840   24.9920 C.ar   59  TYR59      -0.0200
     71  CD1       26.0920   10.8710   23.7250 C.ar   59  TYR59      -0.0009
     72  CD2       27.7180   11.8950   25.1610 C.ar   59  TYR59      -0.0009
     73  CE1       26.9930   10.8540   22.6670 C.ar   59  TYR59       0.0417
     74  CE2       28.6360   11.8680   24.1090 C.ar   59  TYR59       0.0417
     75  CZ        28.2690   11.3350   22.8840 C.ar   59  TYR59       0.1957
     76  OH        29.2150   11.1350   21.9370 O.3    59  TYR59      -0.2866
     77  N         26.3360   14.4140   27.6160 N.am   60  ALA60      -0.1966
     78  CA        26.0990   15.8520   27.6450 C.3    60  ALA60       0.1728
     79  C         26.6750   16.6760   26.4610 C.2    60  ALA60       0.2616
     80  O         26.0380   17.6310   26.0130 O.2    60  ALA60      -0.2715
     81  CB        26.6270   16.4240   28.9870 C.3    60  ALA60       0.0334
     82  N         27.8340   16.2870   25.9250 N.am   61  PHE61      -0.1974
     83  CA        28.4160   17.0080   24.7770 C.3    61  PHE61       0.1639
     84  C         29.2730   16.0340   23.9880 C.2    61  PHE61       0.2290
     85  O         30.2960   15.5520   24.4780 O.2    61  PHE61      -0.2864
     86  CB        29.2940   18.1990   25.2580 C.3    61  PHE61       0.0560
     87  CG        29.7200   19.1510   24.1420 C.ar   61  PHE61      -0.0200
     88  CD1       30.9530   18.9980   23.4930 C.ar   61  PHE61      -0.0042
     89  CD2       28.8600   20.1610   23.7150 C.ar   61  PHE61      -0.0042
     90  CE1       31.3250   19.8240   22.4370 C.ar   61  PHE61      -0.0003
     91  CE2       29.2240   21.0080   22.6370 C.ar   61  PHE61      -0.0003
     92  CZ        30.4620   20.8400   21.9940 C.ar   61  PHE61      -0.0000
     93  N         29.6220   17.5080   18.5590 N.3    65  ASN65      -0.1240
     94  CA        28.8170   18.7180   18.8020 C.3    65  ASN65       0.1653
     95  C         29.5770   20.0590   18.6280 C.2    65  ASN65       0.2266
     96  O         28.9690   21.1160   18.7250 O.2    65  ASN65      -0.2867
     97  CB        28.1240   18.6810   20.1820 C.3    65  ASN65       0.1155
     98  CG        27.0270   17.5510   20.3310 C.2    65  ASN65       0.2627
     99  OD1       26.7320   17.1080   21.4710 O.2    65  ASN65      -0.2716
    100  ND2       26.4230   17.1160   19.2160 N.am   65  ASN65      -0.0877
    101  N         28.3700   22.6350   15.7990 N.3    68  ARG68      -0.1245
    102  CA        27.1770   23.4180   16.0050 C.3    68  ARG68       0.1563
    103  C         27.5970   24.8770   16.0290 C.2    68  ARG68       0.2260
    104  O         28.7820   25.1820   16.0200 O.2    68  ARG68      -0.2867
    105  CB        26.4860   23.0180   17.3140 C.3    68  ARG68       0.0307
    106  CG        25.8050   21.6570   17.2390 C.3    68  ARG68       0.0489
    107  CD        24.9300   21.3880   18.4400 C.3    68  ARG68       0.2205
    108  NE        24.2400   20.1120   18.2860 N.pl3  68  ARG68      -0.0865
    109  CZ        23.2820   19.6740   19.0980 C.cat  68  ARG68       0.5346
    110  NH1       22.8990   20.4250   20.1230 N.pl3  68  ARG68       0.1354
    111  NH2       22.7170   18.4890   18.9000 N.pl3  68  ARG68       0.1354
    112  N         26.5790   26.5050   25.9730 N.3    76  LEU76      -0.1245
    113  CA        26.6400   25.1700   26.5320 C.3    76  LEU76       0.1561
    114  C         27.7530   25.1440   27.6090 C.2    76  LEU76       0.2260
    115  O         27.5440   24.7340   28.7430 O.2    76  LEU76      -0.2867
    116  CB        26.9550   24.1650   25.4390 C.3    76  LEU76       0.0270
    117  CG        25.6700   23.5730   24.8750 C.3    76  LEU76       0.0019
    118  CD1       26.0250   22.4910   23.8750 C.3    76  LEU76       0.0001
    119  CD2       24.8100   23.0000   26.0230 C.3    76  LEU76       0.0001
@<TRIPOS>BOND
     1   101   102    1
     2   102   103    1
     3   102   105    1
     4   104   103    2
     5   106   105    1
     6   106   107    1
     7    39    38    1
     8    39    40    1
     9    38    37    1
    10    53    52    1
    11    40    41    2
    12    42    41    1
    13   108   107    1
    14   108   109    2
    15    41    43    1
    16    93    94    1
    17    54    52    1
    18    52    51    2
    19    95    96    2
    20    95    94    1
    21    94    97    1
    22   111   109    1
    23   109   110    1
    24    51    50    1
    25   100    98   am
    26    37    34    1
    27    50    49    1
    28    34    33    1
    29    34    35    1
    30    16    14   ar
    31    33    31   am
    32    97    98    1
    33    98    99    2
    34    32    31    2
    35    31    30    1
    36    36    35    2
    37    48    49    1
    38    48    45    1
    39    15    14   ar
    40    30    29    1
    41    14    13    1
    42    44    45    1
    43    45    46    1
    44    29    23   am
    45    76    75    1
    46    92    90   ar
    47    92    91   ar
    48    13    10    1
    49    18    17    1
    50    18    19    1
    51    90    88   ar
    52    17    11   am
    53    91    89   ar
    54    73    75   ar
    55    73    71   ar
    56    20    19    2
    57    19    21   am
    58    75    74   ar
    59    46    47    2
    60    23    24    2
    61    23    22    1
    62    63    64   ar
    63    63    61   ar
    64    11    10    1
    65    11    12    2
    66    10     9    1
    67    21    22    1
    68    88    87   ar
    69    64    62   ar
    70    89    87   ar
    71    71    70   ar
    72   118   117    1
    73    84    85    2
    74    84    83    1
    75    22    25    1
    76    74    72   ar
    77    87    86    1
    78    61    60   ar
    79    25    26    1
    80     9     3   am
    81    83    86    1
    82    83    82    1
    83    62    60   ar
    84   117   116    1
    85   117   119    1
    86    70    72   ar
    87    70    69    1
    88    60    59    1
    89     4     3    2
    90   116   113    1
    91     3     2    1
    92    26    28   am
    93    26    27    2
    94    82    79   am
    95   112   113    1
    96    80    79    2
    97    69    66    1
    98     1     2    1
    99    79    78    1
   100   113   114    1
   101    55    56    1
   102    59    56    1
   103     2     5    1
   104    68    67    2
   105    67    66    1
   106    67    77   am
   107    56    57    1
   108    66    65    1
   109   114   115    2
   110    77    78    1
   111    78    81    1
   112     5     6    1
   113    57    58    2
   114     6     7    1
   115     8     7    1
