@<TRIPOS>MOLECULE
tmp/1x09A00.pdb
 100 94 0 0 0
SMALL
GASTEIGER

@<TRIPOS>ATOM
      1  N         21.2230   11.9600   26.4400 N.3    17  MET17      -0.1230
      2  CA        20.2050   12.9800   26.7980 C.3    17  MET17       0.1702
      3  C         19.8460   13.8150   25.5760 C.2    17  MET17       0.2592
      4  O         20.2960   14.9440   25.4480 O.2    17  MET17      -0.2718
      5  CB        20.7920   13.8920   27.8900 C.3    17  MET17       0.0401
      6  CG        21.3570   13.0990   29.0920 C.3    17  MET17       0.0596
      7  SD        21.8310   14.1840   30.4800 S.3    17  MET17      -0.1393
      8  CE        23.3500   14.9310   29.8990 C.3    17  MET17       0.0692
      9  N         19.0730   13.2360   24.6720 N.am   18  ALA18      -0.1966
     10  CA        18.7550   13.9230   23.4170 C.3    18  ALA18       0.1728
     11  C         17.3120   14.4320   23.3570 C.2    18  ALA18       0.2617
     12  O         16.4570   13.9830   24.1180 O.2    18  ALA18      -0.2715
     13  CB        19.0170   12.9490   22.2290 C.3    18  ALA18       0.0334
     14  N         17.0430   15.3450   22.4280 N.am   19  GLY19      -0.1940
     15  CA        15.6980   15.9020   22.3260 C.3    19  GLY19       0.2014
     16  C         15.5760   17.2890   22.9690 C.2    19  GLY19       0.2639
     17  O         14.4850   17.8490   22.9740 O.2    19  GLY19      -0.2714
     18  N         16.6570   17.8530   23.5000 N.am   20  ASN20      -0.1958
     19  CA        16.5870   19.1790   24.0970 C.3    20  ASN20       0.1819
     20  C         16.2750   20.2560   23.0750 C.2    20  ASN20       0.2622
     21  O         15.4410   21.1150   23.3470 O.2    20  ASN20      -0.2715
     22  CB        17.8640   19.5740   24.8330 C.3    20  ASN20       0.1195
     23  CG        18.2330   18.5520   25.8830 C.2    20  ASN20       0.2630
     24  OD1       17.7310   18.6010   27.0080 O.2    20  ASN20      -0.2716
     25  ND2       19.1460   17.7030   25.5660 N.am   20  ASN20      -0.0877
     26  N         16.9270   20.2000   21.9170 N.am   21  GLY21      -0.1940
     27  CA        16.6790   21.2180   20.8980 C.3    21  GLY21       0.2014
     28  C         15.2560   21.1170   20.3930 C.2    21  GLY21       0.2638
     29  O         14.5610   22.1270   20.2940 O.2    21  GLY21      -0.2714
     30  N         14.8160   19.9210   20.0610 N.am   22  ARG22      -0.1977
     31  CA        13.4670   19.6900   19.5810 C.3    22  ARG22       0.1597
     32  C         12.3780   20.1290   20.6200 C.2    22  ARG22       0.2287
     33  O         11.3090   20.6880   20.2600 O.2    22  ARG22      -0.2864
     34  CB        13.3130   18.1940   19.2790 C.3    22  ARG22       0.0334
     35  CG        11.9980   17.7880   18.6390 C.3    22  ARG22       0.0492
     36  CD        12.1130   16.3670   18.0280 C.3    22  ARG22       0.2205
     37  NE        13.4600   16.1540   17.4900 N.pl3  22  ARG22      -0.0865
     38  CZ        13.7450   15.4690   16.3760 C.cat  22  ARG22       0.5346
     39  NH1       12.7670   14.9180   15.6530 N.pl3  22  ARG22       0.1354
     40  NH2       15.0130   15.3220   15.9990 N.pl3  22  ARG22       0.1354
     41  N         17.3880   26.7650   21.1870 N.3    31  ARG31      -0.1245
     42  CA        17.8960   25.4880   21.6910 C.3    31  ARG31       0.1563
     43  C         18.4560   25.5560   23.1120 C.2    31  ARG31       0.2260
     44  O         18.2650   24.6060   23.8950 O.2    31  ARG31      -0.2867
     45  CB        18.9680   24.9200   20.7460 C.3    31  ARG31       0.0307
     46  CG        18.4150   24.5080   19.3660 C.3    31  ARG31       0.0489
     47  CD        19.5090   23.7990   18.5340 C.3    31  ARG31       0.2205
     48  NE        20.0650   22.7220   19.3490 N.pl3  31  ARG31      -0.0865
     49  CZ        19.8610   21.4200   19.1390 C.cat  31  ARG31       0.5346
     50  NH1       19.1150   20.9810   18.1120 N.pl3  31  ARG31       0.1354
     51  NH2       20.3770   20.5530   19.9970 N.pl3  31  ARG31       0.1354
     52  N         18.2900   23.1380   26.5220 N.3    35  HIS35      -0.1241
     53  CA        19.3920   22.5350   27.3150 C.3    35  HIS35       0.1621
     54  C         19.3240   22.9260   28.8080 C.2    35  HIS35       0.2264
     55  O         19.6460   22.1180   29.7080 O.2    35  HIS35      -0.2867
     56  CB        20.7170   22.9530   26.7200 C.3    35  HIS35       0.0745
     57  CG        21.0450   22.1740   25.4890 C.ar   35  HIS35       0.0817
     58  ND1       21.0310   22.7250   24.2300 N.ar   35  HIS35      -0.2268
     59  CD2       21.2060   20.8420   25.3140 C.ar   35  HIS35       0.1154
     60  CE1       21.1540   21.7660   23.3280 C.ar   35  HIS35       0.1986
     61  NE2       21.2560   20.6120   23.9630 N.ar   35  HIS35      -0.2212
     62  N         30.0520   17.2470   18.1740 N.3    66  ASN66      -0.1240
     63  CA        29.1890   18.4410   18.3200 C.3    66  ASN66       0.1653
     64  C         29.8910   19.8080   18.2450 C.2    66  ASN66       0.2266
     65  O         29.2620   20.8610   18.4740 O.2    66  ASN66      -0.2867
     66  CB        28.3970   18.3890   19.6230 C.3    66  ASN66       0.1155
     67  CG        27.4400   17.2190   19.6660 C.2    66  ASN66       0.2627
     68  OD1       27.2210   16.5970   20.7390 O.2    66  ASN66      -0.2716
     69  ND2       26.8500   16.8970   18.4990 N.am   66  ASN66      -0.0877
     70  N         28.5440   22.4360   15.7490 N.3    69  ARG69      -0.1245
     71  CA        27.3080   23.2050   15.9870 C.3    69  ARG69       0.1563
     72  C         27.6060   24.6850   15.9470 C.2    69  ARG69       0.2260
     73  O         28.7580   25.1100   15.9490 O.2    69  ARG69      -0.2867
     74  CB        26.7100   22.8830   17.3690 C.3    69  ARG69       0.0307
     75  CG        26.3180   21.4320   17.5800 C.3    69  ARG69       0.0489
     76  CD        25.0150   21.1330   16.9080 C.3    69  ARG69       0.2205
     77  NE        24.6680   19.7350   17.0760 N.pl3  69  ARG69      -0.0865
     78  CZ        23.4300   19.2510   17.0150 C.cat  69  ARG69       0.5346
     79  NH1       22.4020   20.0640   16.7900 N.pl3  69  ARG69       0.1354
     80  NH2       23.2250   17.9440   17.1800 N.pl3  69  ARG69       0.1354
     81  N         18.0810    6.1820   25.3650 N.3   186  ARG186     -0.1245
     82  CA        18.2230    7.3270   24.5420 C.3   186  ARG186      0.1563
     83  C         16.8430    7.9810   24.4290 C.2   186  ARG186      0.2260
     84  O         15.9080    7.3580   23.9030 O.2   186  ARG186     -0.2867
     85  CB        18.7210    7.0060   23.1230 C.3   186  ARG186      0.0307
     86  CG        18.6870    8.3150   22.2510 C.3   186  ARG186      0.0489
     87  CD        19.5080    8.1410   20.9480 C.3   186  ARG186      0.2205
     88  NE        19.4970    9.4200   20.2350 N.pl3 186  ARG186     -0.0865
     89  CZ        20.5140    9.8780   19.5270 C.cat 186  ARG186      0.5346
     90  NH1       21.6340    9.1620   19.4460 N.pl3 186  ARG186      0.1354
     91  NH2       20.4080   11.0430   18.8860 N.pl3 186  ARG186      0.1354
     92  N         15.3050    9.3300   18.3420 N.3   190  GLU190     -0.1245
     93  CA        16.2260    8.7560   17.3360 C.3   190  GLU190      0.1567
     94  C         16.7740    7.3940   17.8100 C.2   190  GLU190      0.2260
     95  O         16.9380    7.1650   18.9970 O.2   190  GLU190     -0.2867
     96  CB        17.3880    9.7020   17.0500 C.3   190  GLU190      0.0388
     97  CG        16.9270   11.0930   16.6170 C.3   190  GLU190      0.1160
     98  CD        16.2840   11.1130   15.2460 C.2   190  GLU190      0.3649
     99  OE1       15.2760   11.8410   15.1210 O.co2 190  GLU190     -0.2457
    100  OE2       16.7690   10.4410   14.2890 O.co2 190  GLU190     -0.2457
@<TRIPOS>BOND
     1   100    98   ar
     2    99    98   ar
     3    98    97    1
     4    39    38    1
     5    70    71    1
     6    72    73    2
     7    72    71    1
     8    71    74    1
     9    40    38    1
    10    38    37    2
    11    97    96    1
    12    79    78    1
    13    76    77    1
    14    76    75    1
    15    78    77    2
    16    78    80    1
    17    96    93    1
    18    93    94    1
    19    93    92    1
    20    74    75    1
    21    37    36    1
    22    94    95    2
    23    36    35    1
    24    50    49    1
    25    62    63    1
    26    64    63    1
    27    64    65    2
    28    63    66    1
    29    69    67   am
    30    47    48    1
    31    47    46    1
    32    35    34    1
    33    91    89    1
    34    49    48    2
    35    49    51    1
    36    34    31    1
    37    46    45    1
    38    90    89    1
    39    89    88    2
    40    31    30    1
    41    31    32    1
    42    66    67    1
    43    67    68    2
    44    30    28   am
    45    88    87    1
    46    33    32    2
    47    29    28    2
    48    28    27    1
    49    45    42    1
    50    27    26    1
    51    87    86    1
    52    41    42    1
    53    42    43    1
    54    26    20   am
    55    13    10    1
    56    86    85    1
    57    15    14    1
    58    15    16    1
    59    14    11   am
    60    16    17    2
    61    16    18   am
    62    20    21    2
    63    20    19    1
    64    43    44    2
    65    85    82    1
    66    60    61   ar
    67    60    58   ar
    68    11    10    1
    69    11    12    2
    70    10     9    1
    71    18    19    1
    72    84    83    2
    73    61    59   ar
    74    19    22    1
    75    58    57   ar
    76    83    82    1
    77    82    81    1
    78     9     3   am
    79    22    23    1
    80    59    57   ar
    81     4     3    2
    82    57    56    1
    83    25    23   am
    84     3     2    1
    85    23    24    2
    86     1     2    1
    87    52    53    1
    88    56    53    1
    89     2     5    1
    90    53    54    1
    91     5     6    1
    92    54    55    2
    93     6     7    1
    94     8     7    1
