@<TRIPOS>MOLECULE
tmp/1x09A01.pdb
 111 106 0 0 0
SMALL
GASTEIGER

@<TRIPOS>ATOM
      1  N         21.7150    8.8080   26.7750 N.3    16  ILE16      -0.1231
      2  CA        22.0310    9.7670   25.7190 C.3    16  ILE16       0.1692
      3  C         20.8770   10.7910   25.9010 C.2    16  ILE16       0.2592
      4  O         19.7210   10.5130   25.6030 O.2    16  ILE16      -0.2718
      5  CB        21.9510    9.1220   24.3390 C.3    16  ILE16       0.0266
      6  CG1       23.0320    8.0130   24.2350 C.3    16  ILE16       0.0019
      7  CG2       22.0840   10.2600   23.2320 C.3    16  ILE16       0.0020
      8  CD1       22.9890    7.1870   22.9460 C.3    16  ILE16       0.0001
      9  N         21.2230   11.9600   26.4400 N.am   17  MET17      -0.1965
     10  CA        20.2050   12.9800   26.7980 C.3    17  MET17       0.1736
     11  C         19.8460   13.8150   25.5760 C.2    17  MET17       0.2616
     12  O         20.2960   14.9440   25.4480 O.2    17  MET17      -0.2715
     13  CB        20.7920   13.8920   27.8900 C.3    17  MET17       0.0427
     14  CG        21.3570   13.0990   29.0920 C.3    17  MET17       0.0599
     15  SD        21.8310   14.1840   30.4800 S.3    17  MET17      -0.1393
     16  CE        23.3500   14.9310   29.8990 C.3    17  MET17       0.0692
     17  N         19.0730   13.2360   24.6720 N.am   18  ALA18      -0.1977
     18  CA        18.7550   13.9230   23.4170 C.3    18  ALA18       0.1597
     19  C         17.3120   14.4320   23.3570 C.2    18  ALA18       0.2287
     20  O         16.4570   13.9830   24.1180 O.2    18  ALA18      -0.2864
     21  CB        19.0170   12.9490   22.2290 C.3    18  ALA18       0.0319
     22  N         25.5210   11.3770   28.5460 N.3    60  TYR60      -0.1227
     23  CA        26.1700   11.9600   27.3270 C.3    60  TYR60       0.1736
     24  C         25.6860   13.3960   27.2230 C.2    60  TYR60       0.2595
     25  O         24.5260   13.6420   26.9000 O.2    60  TYR60      -0.2718
     26  CB        25.7170   11.2180   26.1230 C.3    60  TYR60       0.0548
     27  CG        26.6280   11.2670   24.9400 C.ar   60  TYR60      -0.0200
     28  CD1       26.1900   10.7220   23.7190 C.ar   60  TYR60      -0.0009
     29  CD2       27.9190   11.7530   25.0290 C.ar   60  TYR60      -0.0009
     30  CE1       27.0200   10.6580   22.6220 C.ar   60  TYR60       0.0417
     31  CE2       28.7910   11.6780   23.9330 C.ar   60  TYR60       0.0417
     32  CZ        28.3370   11.1340   22.7540 C.ar   60  TYR60       0.1957
     33  OH        29.1760   10.9830   21.6580 O.3    60  TYR60      -0.2866
     34  N         26.5680   14.3170   27.5490 N.am   61  ALA61      -0.1966
     35  CA        26.2370   15.7510   27.6110 C.3    61  ALA61       0.1728
     36  C         26.7920   16.4790   26.3810 C.2    61  ALA61       0.2616
     37  O         26.1360   17.4000   25.8520 O.2    61  ALA61      -0.2715
     38  CB        26.8220   16.3410   28.9070 C.3    61  ALA61       0.0334
     39  N         27.9420   16.0360   25.8480 N.am   62  PHE62      -0.1960
     40  CA        28.4650   16.7500   24.6520 C.3    62  PHE62       0.1771
     41  C         29.3960   15.8390   23.8960 C.2    62  PHE62       0.2620
     42  O         30.3800   15.3820   24.4550 O.2    62  PHE62      -0.2715
     43  CB        29.1980   18.0280   25.1410 C.3    62  PHE62       0.0574
     44  CG        29.6540   18.9400   24.0320 C.ar   62  PHE62      -0.0200
     45  CD1       30.9020   18.7490   23.4220 C.ar   62  PHE62      -0.0042
     46  CD2       28.8280   19.9640   23.5840 C.ar   62  PHE62      -0.0042
     47  CE1       31.3350   19.5780   22.3630 C.ar   62  PHE62      -0.0003
     48  CE2       29.2340   20.7990   22.5290 C.ar   62  PHE62      -0.0003
     49  CZ        30.4990   20.6000   21.9140 C.ar   62  PHE62      -0.0000
     50  N         29.0980   15.5440   22.6240 N.am   63  SER63      -0.1950
     51  CA        29.9430   14.6370   21.8770 C.3    63  SER63       0.1924
     52  C         31.1770   15.2310   21.1630 C.2    63  SER63       0.2314
     53  O         31.2680   16.4190   20.9730 O.2    63  SER63      -0.2863
     54  CB        29.0980   13.8900   20.8470 C.3    63  SER63       0.2116
     55  OG        29.2730   14.4840   19.5800 O.3    63  SER63      -0.2180
     56  N         31.7940   15.0720   18.1650 N.3    65  GLU65      -0.1231
     57  CA        31.3770   15.5950   16.8680 C.3    65  GLU65       0.1699
     58  C         30.5090   16.8770   16.9760 C.2    65  GLU65       0.2592
     59  O         30.2770   17.5400   15.9670 O.2    65  GLU65      -0.2718
     60  CB        30.5980   14.5370   16.0580 C.3    65  GLU65       0.0402
     61  CG        31.4320   13.3260   15.4910 C.3    65  GLU65       0.1161
     62  CD        32.0260   12.4130   16.5760 C.2    65  GLU65       0.3649
     63  OE1       31.2540   11.6660   17.2530 O.co2  65  GLU65      -0.2457
     64  OE2       33.2790   12.4540   16.7530 O.co2  65  GLU65      -0.2457
     65  N         30.0520   17.2470   18.1740 N.am   66  ASN66      -0.1974
     66  CA        29.1890   18.4410   18.3200 C.3    66  ASN66       0.1688
     67  C         29.8910   19.8080   18.2450 C.2    66  ASN66       0.2292
     68  O         29.2620   20.8610   18.4740 O.2    66  ASN66      -0.2864
     69  CB        28.3970   18.3890   19.6230 C.3    66  ASN66       0.1181
     70  CG        27.4400   17.2190   19.6660 C.2    66  ASN66       0.2629
     71  OD1       27.2210   16.5970   20.7390 O.2    66  ASN66      -0.2716
     72  ND2       26.8500   16.8970   18.4990 N.am   66  ASN66      -0.0877
     73  N         28.5440   22.4360   15.7490 N.3    69  ARG69      -0.1245
     74  CA        27.3080   23.2050   15.9870 C.3    69  ARG69       0.1563
     75  C         27.6060   24.6850   15.9470 C.2    69  ARG69       0.2260
     76  O         28.7580   25.1100   15.9490 O.2    69  ARG69      -0.2867
     77  CB        26.7100   22.8830   17.3690 C.3    69  ARG69       0.0307
     78  CG        26.3180   21.4320   17.5800 C.3    69  ARG69       0.0489
     79  CD        25.0150   21.1330   16.9080 C.3    69  ARG69       0.2205
     80  NE        24.6680   19.7350   17.0760 N.pl3  69  ARG69      -0.0865
     81  CZ        23.4300   19.2510   17.0150 C.cat  69  ARG69       0.5346
     82  NH1       22.4020   20.0640   16.7900 N.pl3  69  ARG69       0.1354
     83  NH2       23.2250   17.9440   17.1800 N.pl3  69  ARG69       0.1354
     84  N         18.0810    6.1820   25.3650 N.3   186  ARG186     -0.1245
     85  CA        18.2230    7.3270   24.5420 C.3   186  ARG186      0.1563
     86  C         16.8430    7.9810   24.4290 C.2   186  ARG186      0.2260
     87  O         15.9080    7.3580   23.9030 O.2   186  ARG186     -0.2867
     88  CB        18.7210    7.0060   23.1230 C.3   186  ARG186      0.0307
     89  CG        18.6870    8.3150   22.2510 C.3   186  ARG186      0.0489
     90  CD        19.5080    8.1410   20.9480 C.3   186  ARG186      0.2205
     91  NE        19.4970    9.4200   20.2350 N.pl3 186  ARG186     -0.0865
     92  CZ        20.5140    9.8780   19.5270 C.cat 186  ARG186      0.5346
     93  NH1       21.6340    9.1620   19.4460 N.pl3 186  ARG186      0.1354
     94  NH2       20.4080   11.0430   18.8860 N.pl3 186  ARG186      0.1354
     95  N         19.8330    5.7060   17.3990 N.3   192  ARG192     -0.1245
     96  CA        21.2550    5.6040   17.0750 C.3   192  ARG192      0.1563
     97  C         21.9830    5.7090   18.4110 C.2   192  ARG192      0.2260
     98  O         21.4180    6.2530   19.3730 O.2   192  ARG192     -0.2867
     99  CB        21.7110    6.7880   16.2080 C.3   192  ARG192      0.0307
    100  CG        20.9950    6.9860   14.8990 C.3   192  ARG192      0.0489
    101  CD        21.6720    8.1060   14.1290 C.3   192  ARG192      0.2205
    102  NE        21.3430    9.3970   14.7090 N.pl3 192  ARG192     -0.0865
    103  CZ        20.1820   10.0310   14.4870 C.cat 192  ARG192      0.5346
    104  NH1       19.2530    9.4700   13.6830 N.pl3 192  ARG192      0.1354
    105  NH2       19.9440   11.2170   15.0590 N.pl3 192  ARG192      0.1354
    106  N         25.1030    6.9780   18.3480 N.3   194  SER194     -0.1217
    107  CA        25.9010    8.1690   18.1110 C.3   194  SER194      0.1889
    108  C         27.2780    8.2470   18.7810 C.2   194  SER194      0.2288
    109  O         27.6090    9.1960   19.5090 O.2   194  SER194     -0.2866
    110  CB        25.0530    9.3950   18.4900 C.3   194  SER194      0.2089
    111  OG        23.8020    9.3830   17.8120 O.3   194  SER194     -0.2183
@<TRIPOS>BOND
     1   104   103    1
     2   101   102    1
     3   101   100    1
     4   103   102    2
     5   103   105    1
     6   100    99    1
     7    61    60    1
     8    61    62    1
     9    73    74    1
    10    75    76    2
    11    75    74    1
    12    59    58    2
    13    74    77    1
    14    60    57    1
    15    99    96    1
    16    62    64   ar
    17    62    63   ar
    18    82    81    1
    19    57    58    1
    20    57    56    1
    21    79    80    1
    22    79    78    1
    23    58    65   am
    24    81    80    2
    25    81    83    1
    26    96    95    1
    27    96    97    1
    28    77    78    1
    29   111   110    1
    30   107   106    1
    31   107   110    1
    32   107   108    1
    33    65    66    1
    34    67    66    1
    35    67    68    2
    36    66    69    1
    37    97    98    2
    38    72    70   am
    39   108   109    2
    40    94    92    1
    41    93    92    1
    42    92    91    2
    43    55    54    1
    44    69    70    1
    45    70    71    2
    46    91    90    1
    47    54    51    1
    48    90    89    1
    49    53    52    2
    50    52    51    1
    51    33    32    1
    52    51    50    1
    53    49    47   ar
    54    49    48   ar
    55    21    18    1
    56    89    88    1
    57    47    45   ar
    58    48    46   ar
    59    30    32   ar
    60    30    28   ar
    61    50    41   am
    62    32    31   ar
    63     8     6    1
    64    88    85    1
    65     7     5    1
    66    19    18    1
    67    19    20    2
    68    18    17    1
    69    45    44   ar
    70    46    44   ar
    71    28    27   ar
    72    41    42    2
    73    41    40    1
    74    87    86    2
    75    31    29   ar
    76    44    43    1
    77     6     5    1
    78     5     2    1
    79    86    85    1
    80    85    84    1
    81    40    43    1
    82    40    39    1
    83    17    11   am
    84    27    29   ar
    85    27    26    1
    86    12    11    2
    87    11    10    1
    88     4     3    2
    89     2     3    1
    90     2     1    1
    91    39    36   am
    92    37    36    2
    93     3     9   am
    94    26    23    1
    95    36    35    1
    96     9    10    1
    97    10    13    1
    98    25    24    2
    99    24    23    1
   100    24    34   am
   101    23    22    1
   102    34    35    1
   103    35    38    1
   104    13    14    1
   105    14    15    1
   106    16    15    1
