@<TRIPOS>MOLECULE
tmp/1x0jC00.pdb
 109 106 0 0 0
SMALL
GASTEIGER

@<TRIPOS>ATOM
      1  N         47.8080   33.6990   14.4060 N.3    21  TRP21      -0.1228
      2  CA        48.1690   32.8400   15.5320 C.3    21  TRP21       0.1722
      3  C         49.3390   31.8880   15.3540 C.2    21  TRP21       0.2442
      4  O         50.1000   31.7210   16.3110 O.2    21  TRP21      -0.2733
      5  CB        46.8740   32.1360   16.1330 C.3    21  TRP21       0.0563
      6  CG        46.3240   31.1450   15.3080 C.ar   21  TRP21       0.0003
      7  CD1       45.3270   31.3080   14.4270 C.ar   21  TRP21       0.0946
      8  CD2       46.7570   29.8080   15.2110 C.ar   21  TRP21       0.0152
      9  NE1       45.1000   30.1330   13.7760 N.ar   21  TRP21      -0.2442
     10  CE2       45.9750   29.1930   14.2370 C.ar   21  TRP21       0.0810
     11  CE3       47.7890   29.0720   15.7940 C.ar   21  TRP21       0.0012
     12  CZ2       46.1160   27.8360   13.8800 C.ar   21  TRP21       0.0191
     13  CZ3       47.9370   27.7240   15.4380 C.ar   21  TRP21       0.0001
     14  CH2       47.1020   27.1290   14.4840 C.ar   21  TRP21       0.0015
     15  N         49.5360   31.2240   14.2180 N.am   22  PRO22      -0.2643
     16  CA        50.7380   30.3990   14.0750 C.3    22  PRO22       0.1762
     17  C         52.0600   31.1860   14.0610 C.2    22  PRO22       0.2641
     18  O         53.1370   30.5460   14.1650 O.2    22  PRO22      -0.2712
     19  CB        50.5500   29.7520   12.6990 C.2    22  PRO22      -0.0003
     20  CG        49.3600   30.1640   12.1700 C.2    22  PRO22      -0.0071
     21  CD        48.7130   31.1390   13.0050 C.3    22  PRO22       0.1204
     22  N         51.9690   32.4950   13.8970 N.am   23  PHE23      -0.1971
     23  CA        53.1080   33.3640   13.6450 C.3    23  PHE23       0.1640
     24  C         53.4890   34.2270   14.8420 C.2    23  PHE23       0.2290
     25  O         54.5420   34.8370   14.8000 O.2    23  PHE23      -0.2864
     26  CB        52.8710   34.2250   12.4290 C.3    23  PHE23       0.0560
     27  CG        52.4740   33.4160   11.2660 C.ar   23  PHE23      -0.0200
     28  CD1       53.3970   32.5490   10.6760 C.ar   23  PHE23      -0.0042
     29  CD2       51.1590   33.4130   10.8230 C.ar   23  PHE23      -0.0042
     30  CE1       53.0170   31.7420    9.5940 C.ar   23  PHE23      -0.0003
     31  CE2       50.7750   32.6050    9.7480 C.ar   23  PHE23      -0.0003
     32  CZ        51.6830   31.7710    9.1560 C.ar   23  PHE23      -0.0000
     33  N         58.4650   29.0610   16.2680 N.3    27  VAL27      -0.1245
     34  CA        58.0960   27.6890   16.0450 C.3    27  VAL27       0.1561
     35  C         58.8530   26.8060   17.0600 C.2    27  VAL27       0.2260
     36  O         60.0720   26.8040   17.0970 O.2    27  VAL27      -0.2867
     37  CB        58.4730   27.2160   14.6270 C.3    27  VAL27       0.0252
     38  CG1       58.2340   25.7950   14.4980 C.3    27  VAL27       0.0019
     39  CG2       57.6340   27.9440   13.5530 C.3    27  VAL27       0.0019
     40  N         55.9840   20.7330   18.8490 N.3    32  LEU32      -0.1245
     41  CA        55.0580   20.5070   17.7320 C.3    32  LEU32       0.1561
     42  C         55.4980   19.2620   17.0220 C.2    32  LEU32       0.2260
     43  O         54.9000   18.8610   16.0760 O.2    32  LEU32      -0.2867
     44  CB        55.1070   21.6990   16.7710 C.3    32  LEU32       0.0270
     45  CG        54.2690   22.9810   16.9900 C.3    32  LEU32       0.0019
     46  CD1       53.9400   23.4440   18.4360 C.3    32  LEU32       0.0001
     47  CD2       54.9500   24.1620   16.1950 C.3    32  LEU32       0.0001
     48  N         58.2840   18.5000   15.1080 N.3    34  LEU34      -0.1245
     49  CA        58.8590   18.7830   13.7790 C.3    34  LEU34       0.1561
     50  C         60.3890   18.6630   13.8450 C.2    34  LEU34       0.2260
     51  O         61.0870   19.6610   13.6580 O.2    34  LEU34      -0.2867
     52  CB        58.5460   20.2320   13.3770 C.3    34  LEU34       0.0270
     53  CG        57.1500   20.7410   13.0280 C.3    34  LEU34       0.0019
     54  CD1       56.0760   19.8120   13.3610 C.3    34  LEU34       0.0001
     55  CD2       56.8530   22.1020   13.5550 C.3    34  LEU34       0.0001
     56  N         62.4880   20.5980   11.2200 N.3    37  TYR37      -0.1241
     57  CA        62.2340   22.0490   11.0470 C.3    37  TYR37       0.1605
     58  C         63.4980   22.8320   10.8580 C.2    37  TYR37       0.2264
     59  O         63.6760   23.5170    9.8850 O.2    37  TYR37      -0.2867
     60  CB        61.3890   22.6370   12.1820 C.3    37  TYR37       0.0534
     61  CG        60.9760   24.0740   11.8530 C.ar   37  TYR37      -0.0201
     62  CD1       59.9580   24.2970   10.9340 C.ar   37  TYR37      -0.0009
     63  CD2       61.6860   25.1970   12.3500 C.ar   37  TYR37      -0.0009
     64  CE1       59.5980   25.6210   10.5930 C.ar   37  TYR37       0.0417
     65  CE2       61.3310   26.4560   12.0390 C.ar   37  TYR37       0.0417
     66  CZ        60.2520   26.6580   11.1460 C.ar   37  TYR37       0.1957
     67  OH        59.9180   27.8860   10.7350 O.3    37  TYR37      -0.2866
     68  N         57.3230   29.5220    6.2000 N.3    72  CYS72      -0.1235
     69  CA        56.0770   28.7750    6.2110 C.3    72  CYS72       0.1677
     70  C         55.8690   28.0760    4.8490 C.2    72  CYS72       0.2270
     71  O         55.5950   26.9110    4.8060 O.2    72  CYS72      -0.2867
     72  CB        54.9810   29.7590    6.4990 C.3    72  CYS72       0.0956
     73  SG        53.3740   29.0640    6.4670 S.3    72  CYS72      -0.0801
     74  N         58.5600   25.1930    4.3550 N.3    75  TYR75      -0.1227
     75  CA        58.4730   24.0670    5.2200 C.3    75  TYR75       0.1736
     76  C         57.1360   23.2870    5.0880 C.2    75  TYR75       0.2595
     77  O         57.1330   22.0600    5.0130 O.2    75  TYR75      -0.2718
     78  CB        58.6820   24.4680    6.7000 C.3    75  TYR75       0.0548
     79  CG        58.6730   23.2170    7.5980 C.ar   75  TYR75      -0.0200
     80  CD1       59.7200   22.3290    7.5740 C.ar   75  TYR75      -0.0009
     81  CD2       57.5310   22.8900    8.3290 C.ar   75  TYR75      -0.0009
     82  CE1       59.6790   21.1510    8.3670 C.ar   75  TYR75       0.0417
     83  CE2       57.4700   21.7540    9.0930 C.ar   75  TYR75       0.0417
     84  CZ        58.5530   20.8800    9.0760 C.ar   75  TYR75       0.1957
     85  OH        58.5010   19.7150    9.8030 O.3    75  TYR75      -0.2866
     86  N         56.0270   23.9980    5.0860 N.am   76  ASN76      -0.1974
     87  CA        54.7230   23.3820    5.1870 C.3    76  ASN76       0.1688
     88  C         54.2410   22.6950    3.9100 C.2    76  ASN76       0.2292
     89  O         54.7400   22.9560    2.8230 O.2    76  ASN76      -0.2864
     90  CB        53.7470   24.4240    5.6350 C.3    76  ASN76       0.1181
     91  CG        53.9860   24.7670    7.0950 C.2    76  ASN76       0.2629
     92  OD1       53.5840   24.0120    7.9580 O.2    76  ASN76      -0.2716
     93  ND2       54.7230   25.7900    7.3480 N.am   76  ASN76      -0.0877
     94  N         48.2110   22.6060    3.7630 N.3    80  ASP80      -0.1239
     95  CA        48.0040   23.1180    5.1300 C.3    80  ASP80       0.1674
     96  C         47.3520   24.4500    5.0480 C.2    80  ASP80       0.2266
     97  O         47.7640   25.3110    4.2520 O.2    80  ASP80      -0.2867
     98  CB        49.3650   23.2510    5.8660 C.3    80  ASP80       0.1410
     99  CG        49.2530   23.4410    7.4860 C.2    80  ASP80       0.3668
    100  OD1       48.2340   23.8590    8.1280 O.co2  80  ASP80      -0.2456
    101  OD2       50.2730   23.1960    8.1920 O.co2  80  ASP80      -0.2456
    102  N         47.7220   26.6910    7.1210 N.3    82  ILE82      -0.1245
    103  CA        48.6690   27.7160    7.5290 C.3    82  ILE82       0.1561
    104  C         49.2250   28.4440    6.3300 C.2    82  ILE82       0.2260
    105  O         49.4820   29.6200    6.4210 O.2    82  ILE82      -0.2867
    106  CB        49.7930   27.1700    8.3870 C.3    82  ILE82       0.0252
    107  CG1       50.6940   28.2760    8.8770 C.3    82  ILE82       0.0019
    108  CG2       50.7410   26.2660    7.6460 C.3    82  ILE82       0.0019
    109  CD1       51.8340   27.7290    9.7460 C.3    82  ILE82       0.0001
@<TRIPOS>BOND
     1    89    88    2
     2    94    95    1
     3    88    87    1
     4    97    96    2
     5    74    75    1
     6    71    70    2
     7    70    69    1
     8    77    76    2
     9    96    95    1
    10    86    76   am
    11    86    87    1
    12    76    75    1
    13    95    98    1
    14    87    90    1
    15    75    78    1
    16    90    91    1
    17    98    99    1
    18    68    69    1
    19    69    72    1
    20   104   105    2
    21   104   103    1
    22    73    72    1
    23    78    79    1
    24    91    93   am
    25    91    92    2
    26   102   103    1
    27    99   100   ar
    28    99   101   ar
    29   103   106    1
    30    80    79   ar
    31    80    82   ar
    32    79    81   ar
    33   108   106    1
    34    81    83   ar
    35    82    84   ar
    36   106   107    1
    37   107   109    1
    38    84    83   ar
    39    84    85    1
    40    32    30   ar
    41    32    31   ar
    42    30    28   ar
    43    31    29   ar
    44    59    58    2
    45    64    62   ar
    46    64    66   ar
    47    28    27   ar
    48    67    66    1
    49    29    27   ar
    50    58    57    1
    51    62    61   ar
    52    57    56    1
    53    57    60    1
    54    66    65   ar
    55    27    26    1
    56    61    60    1
    57    61    63   ar
    58    65    63   ar
    59    20    19    2
    60    20    21    1
    61    26    23    1
    62    19    16    1
    63    21    15    1
    64    53    54    1
    65    53    52    1
    66    53    55    1
    67    52    49    1
    68    39    37    1
    69    23    22    1
    70    23    24    1
    71    51    50    2
    72     9    10   ar
    73     9     7   ar
    74    49    50    1
    75    49    48    1
    76    12    10   ar
    77    12    14   ar
    78    22    17   am
    79    17    16    1
    80    17    18    2
    81    16    15    1
    82    15     3   am
    83    10     8   ar
    84     1     2    1
    85     7     6   ar
    86    14    13   ar
    87    38    37    1
    88    37    34    1
    89    25    24    2
    90     8     6   ar
    91     8    11   ar
    92     6     5    1
    93     3     2    1
    94     3     4    2
    95    13    11   ar
    96     2     5    1
    97    34    33    1
    98    34    35    1
    99    43    42    2
   100    47    45    1
   101    44    45    1
   102    44    41    1
   103    45    46    1
   104    42    41    1
   105    35    36    2
   106    41    40    1
