@<TRIPOS>MOLECULE
tmp/1x0jA00.pdb
 101 99 0 0 0
SMALL
GASTEIGER

@<TRIPOS>ATOM
      1  N         12.7100   19.6400   23.7810 N.3    24  TRP24      -0.1228
      2  CA        11.4100   20.2540   23.9180 C.3    24  TRP24       0.1722
      3  C         11.2940   21.3790   24.9910 C.2    24  TRP24       0.2437
      4  O         10.5610   22.3100   24.7690 O.2    24  TRP24      -0.2733
      5  CB        10.2940   19.2470   24.0910 C.3    24  TRP24       0.0563
      6  CG        10.4210   18.3860   25.2850 C.ar   24  TRP24       0.0003
      7  CD1       11.1110   17.1990   25.3930 C.ar   24  TRP24       0.0946
      8  CD2        9.8500   18.6460   26.5830 C.ar   24  TRP24       0.0152
      9  NE1       11.0320   16.7530   26.6980 N.ar   24  TRP24      -0.2442
     10  CE2       10.2670   17.6060   27.4400 C.ar   24  TRP24       0.0810
     11  CE3        9.1010   19.7030   27.1350 C.ar   24  TRP24       0.0012
     12  CZ2        9.9200   17.5700   28.7960 C.ar   24  TRP24       0.0191
     13  CZ3        8.7330   19.6360   28.4680 C.ar   24  TRP24       0.0001
     14  CH2        9.1240   18.5590   29.2680 C.ar   24  TRP24       0.0015
     15  N         12.0140   21.3030   26.1170 N.am   25  PRO25      -0.2718
     16  CA        11.9360   22.3970   27.0850 C.3    25  PRO25       0.1535
     17  C         12.5200   23.7110   26.5760 C.2    25  PRO25       0.2598
     18  O         12.2880   24.7410   27.2050 O.2    25  PRO25      -0.2715
     19  CB        12.7780   21.8910   28.2840 C.3    25  PRO25       0.0310
     20  CG        12.9030   20.3730   28.0790 C.3    25  PRO25       0.0237
     21  CD        12.8980   20.2420   26.5980 C.3    25  PRO25       0.0939
     22  N         13.3600   23.6300   25.5580 N.am   26  PHE26      -0.1974
     23  CA        14.1470   24.7620   25.0940 C.3    26  PHE26       0.1639
     24  C         13.6750   25.4070   23.7850 C.2    26  PHE26       0.2290
     25  O         14.2790   26.3330   23.3620 O.2    26  PHE26      -0.2864
     26  CB        15.5290   24.3100   24.8990 C.3    26  PHE26       0.0560
     27  CG        16.1370   23.6670   26.1440 C.ar   26  PHE26      -0.0200
     28  CD1       16.2460   22.2690   26.2690 C.ar   26  PHE26      -0.0042
     29  CD2       16.5510   24.4530   27.2000 C.ar   26  PHE26      -0.0042
     30  CE1       16.8190   21.6860   27.4110 C.ar   26  PHE26      -0.0003
     31  CE2       17.0660   23.8680   28.3610 C.ar   26  PHE26      -0.0003
     32  CZ        17.2160   22.4880   28.4420 C.ar   26  PHE26      -0.0000
     33  N         10.8410   30.0690   28.3070 N.3    30  VAL30      -0.1245
     34  CA        10.4320   29.5410   29.5710 C.3    30  VAL30       0.1561
     35  C          9.2010   30.3360   29.9760 C.2    30  VAL30       0.2260
     36  O          9.2500   31.5350   29.9370 O.2    30  VAL30      -0.2867
     37  CB        11.5480   29.7470   30.6290 C.3    30  VAL30       0.0252
     38  CG1       11.0400   29.4370   32.0420 C.3    30  VAL30       0.0019
     39  CG2       12.7300   28.8450   30.2840 C.3    30  VAL30       0.0019
     40  N          4.6640   27.0860   34.3820 N.3    35  LEU35      -0.1245
     41  CA         5.5060   26.0730   35.0220 C.3    35  LEU35       0.1561
     42  C          5.5090   26.2370   36.5080 C.2    35  LEU35       0.2260
     43  O          5.9880   25.3740   37.2280 O.2    35  LEU35      -0.2867
     44  CB         6.9360   26.1430   34.5160 C.3    35  LEU35       0.0270
     45  CG         7.2400   25.4790   33.1700 C.3    35  LEU35       0.0019
     46  CD1        6.9530   23.9480   33.2330 C.3    35  LEU35       0.0001
     47  CD2        6.4540   26.1160   32.0460 C.3    35  LEU35       0.0001
     48  N          6.8830   29.0580   38.4280 N.3    37  LEU37      -0.1245
     49  CA         8.2700   29.4240   38.7470 C.3    37  LEU37       0.1561
     50  C          8.2840   30.9260   38.9460 C.2    37  LEU37       0.2260
     51  O          8.6720   31.6620   38.0670 O.2    37  LEU37      -0.2867
     52  CB         9.1940   29.0470   37.5600 C.3    37  LEU37       0.0270
     53  CG         9.8470   27.6620   37.3960 C.3    37  LEU37       0.0019
     54  CD1        9.0680   26.6030   38.0210 C.3    37  LEU37       0.0001
     55  CD2       10.1280   27.3160   35.9330 C.3    37  LEU37       0.0001
     56  N         11.6210   32.8420   38.5970 N.3    40  TYR40      -0.1241
     57  CA        12.4690   32.5670   37.4200 C.3    40  TYR40       0.1605
     58  C         13.0680   33.8940   36.8930 C.2    40  TYR40       0.2264
     59  O         14.2740   34.0230   36.7500 O.2    40  TYR40      -0.2867
     60  CB        11.6990   31.8440   36.2850 C.3    40  TYR40       0.0534
     61  CG        12.6250   31.5380   35.1410 C.ar   40  TYR40      -0.0201
     62  CD1       13.4910   30.4660   35.2310 C.ar   40  TYR40      -0.0009
     63  CD2       12.7130   32.3740   33.9900 C.ar   40  TYR40      -0.0009
     64  CE1       14.3390   30.1800   34.2260 C.ar   40  TYR40       0.0417
     65  CE2       13.6020   32.0770   32.9250 C.ar   40  TYR40       0.0417
     66  CZ        14.4100   30.9660   33.0630 C.ar   40  TYR40       0.1957
     67  OH        15.3590   30.6240   32.0950 O.3    40  TYR40      -0.2866
     68  N         19.9080   27.6330   32.4040 N.3    75  CYS75      -0.1235
     69  CA        19.4220   26.3640   32.9280 C.3    75  CYS75       0.1677
     70  C         20.2670   25.9010   34.1150 C.2    75  CYS75       0.2270
     71  O         19.7710   25.6840   35.1870 O.2    75  CYS75      -0.2867
     72  CB        19.3580   25.3580   31.7740 C.3    75  CYS75       0.0956
     73  SG        18.8070   23.7810   32.3210 S.3    75  CYS75      -0.0801
     74  N         19.6780   28.6010   37.1710 N.3    78  TYR78      -0.1227
     75  CA        18.3360   28.5880   37.8040 C.3    78  TYR78       0.1736
     76  C         18.0350   27.2310   38.4880 C.2    78  TYR78       0.2595
     77  O         17.5070   27.1940   39.6020 O.2    78  TYR78      -0.2718
     78  CB        17.2220   28.9140   36.7810 C.3    78  TYR78       0.0548
     79  CG        15.8500   28.8490   37.4520 C.ar   78  TYR78      -0.0200
     80  CD1       15.4450   29.8440   38.3650 C.ar   78  TYR78      -0.0009
     81  CD2       15.0220   27.7140   37.2920 C.ar   78  TYR78      -0.0009
     82  CE1       14.2620   29.7600   39.0360 C.ar   78  TYR78       0.0417
     83  CE2       13.8310   27.6010   37.9800 C.ar   78  TYR78       0.0417
     84  CZ        13.4580   28.6210   38.8630 C.ar   78  TYR78       0.1957
     85  OH        12.2890   28.5250   39.5300 O.3    78  TYR78      -0.2866
     86  N         18.3420   26.1300   37.8000 N.am   79  ASN79      -0.1974
     87  CA        17.8150   24.8420   38.2280 C.3    79  ASN79       0.1688
     88  C         18.6720   24.2240   39.3420 C.2    79  ASN79       0.2292
     89  O         19.7690   24.6220   39.5610 O.2    79  ASN79      -0.2864
     90  CB        17.5900   23.8940   37.0700 C.3    79  ASN79       0.1181
     91  CG        16.4390   24.2850   36.2290 C.2    79  ASN79       0.2629
     92  OD1       15.2360   24.0170   36.5460 O.2    79  ASN79      -0.2716
     93  ND2       16.7390   24.9130   35.1460 N.am   79  ASN79      -0.0877
     94  N         16.3660   18.5590   33.8810 N.3    85  ILE85      -0.1245
     95  CA        16.6080   19.5500   32.8510 C.3    85  ILE85       0.1561
     96  C         18.0690   19.8920   32.7160 C.2    85  ILE85       0.2260
     97  O         18.5410   20.1690   31.6420 O.2    85  ILE85      -0.2867
     98  CB        15.7280   20.7360   33.0020 C.3    85  ILE85       0.0252
     99  CG1       15.8270   21.5650   31.6960 C.3    85  ILE85       0.0019
    100  CG2       16.0830   21.5850   34.2210 C.3    85  ILE85       0.0019
    101  CD1       14.6090   22.1660   31.3730 C.3    85  ILE85       0.0001
@<TRIPOS>BOND
     1    25    24    2
     2     1     2    1
     3    24    23    1
     4     2     5    1
     5     2     3    1
     6     5     6    1
     7     4     3    2
     8    26    23    1
     9    26    27    1
    10     3    15   am
    11    23    22    1
    12     6     7   ar
    13     6     8   ar
    14     7     9   ar
    15    22    17   am
    16    15    21    1
    17    15    16    1
    18    27    28   ar
    19    27    29   ar
    20    28    30   ar
    21    17    16    1
    22    17    18    2
    23     8    11   ar
    24     8    10   ar
    25    21    20    1
    26     9    10   ar
    27    16    19    1
    28    11    13   ar
    29    29    31   ar
    30    30    32   ar
    31    10    12   ar
    32    20    19    1
    33    33    34    1
    34    31    32   ar
    35    13    14   ar
    36    12    14   ar
    37    34    35    1
    38    34    37    1
    39    36    35    2
    40    39    37    1
    41    37    38    1
    42   101    99    1
    43    97    96    2
    44    99    98    1
    45    72    73    1
    46    72    69    1
    47    47    45    1
    48    67    66    1
    49    68    69    1
    50    96    95    1
    51    95    98    1
    52    95    94    1
    53    65    66   ar
    54    65    63   ar
    55    69    70    1
    56    98   100    1
    57    66    64   ar
    58    45    46    1
    59    45    44    1
    60    63    61   ar
    61    70    71    2
    62    64    62   ar
    63    40    41    1
    64    44    41    1
    65    41    42    1
    66    61    62   ar
    67    61    60    1
    68    93    91   am
    69    55    53    1
    70    91    92    2
    71    91    90    1
    72    60    57    1
    73    42    43    2
    74    59    58    2
    75    78    79    1
    76    78    75    1
    77    58    57    1
    78    90    87    1
    79    74    75    1
    80    81    79   ar
    81    81    83   ar
    82    53    52    1
    83    53    54    1
    84    57    56    1
    85    79    80   ar
    86    52    49    1
    87    86    87    1
    88    86    76   am
    89    75    76    1
    90    83    84   ar
    91    51    50    2
    92    87    88    1
    93    80    82   ar
    94    48    49    1
    95    76    77    2
    96    49    50    1
    97    84    82   ar
    98    84    85    1
    99    88    89    2
