@<TRIPOS>MOLECULE
tmp/1x0jB00.pdb
 95 90 0 0 0
SMALL
GASTEIGER

@<TRIPOS>ATOM
      1  N         40.6780   31.8210   40.3900 N.3    25  PRO25      -0.2102
      2  CA        39.9710   30.7040   41.0480 C.3    25  PRO25       0.1504
      3  C         40.0030   29.3840   40.2740 C.2    25  PRO25       0.2575
      4  O         39.5910   28.3680   40.8570 O.2    25  PRO25      -0.2718
      5  CB        38.5240   31.2120   41.1980 C.3    25  PRO25       0.0282
      6  CG        38.6060   32.7470   40.9930 C.3    25  PRO25       0.0208
      7  CD        39.7510   32.8880   39.9920 C.3    25  PRO25       0.0893
      8  N         40.3610   29.4200   38.9870 N.am   26  PHE26      -0.1977
      9  CA        40.2190   28.2950   38.0680 C.3    26  PHE26       0.1639
     10  C         41.5050   27.6850   37.6870 C.2    26  PHE26       0.2290
     11  O         41.5110   26.7180   36.9130 O.2    26  PHE26      -0.2864
     12  CB        39.4990   28.7200   36.8050 C.3    26  PHE26       0.0560
     13  CG        38.1990   29.3360   37.0490 C.ar   26  PHE26      -0.0200
     14  CD1       38.0340   30.7190   37.0280 C.ar   26  PHE26      -0.0042
     15  CD2       37.0760   28.5200   37.3110 C.ar   26  PHE26      -0.0042
     16  CE1       36.7540   31.3210   37.2670 C.ar   26  PHE26      -0.0003
     17  CE2       35.8160   29.0930   37.5460 C.ar   26  PHE26      -0.0003
     18  CZ        35.6560   30.4890   37.5420 C.ar   26  PHE26      -0.0000
     19  N         39.6680   22.7820   42.5060 N.3    30  VAL30      -0.1245
     20  CA        38.9520   23.3520   43.6260 C.3    30  VAL30       0.1561
     21  C         39.3700   22.5430   44.8920 C.2    30  VAL30       0.2260
     22  O         39.2310   21.2910   44.9290 O.2    30  VAL30      -0.2867
     23  CB        37.4520   23.2540   43.4040 C.3    30  VAL30       0.0252
     24  CG1       36.6730   23.5300   44.6730 C.3    30  VAL30       0.0019
     25  CG2       36.9670   24.1920   42.2600 C.3    30  VAL30       0.0019
     26  N         38.5200   25.8440   50.8820 N.3    35  LEU35      -0.1245
     27  CA        37.4330   26.7770   50.6250 C.3    35  LEU35       0.1561
     28  C         36.2650   26.5980   51.5500 C.2    35  LEU35       0.2260
     29  O         35.3670   27.4220   51.5050 O.2    35  LEU35      -0.2867
     30  CB        36.9890   26.6970   49.1590 C.3    35  LEU35       0.0270
     31  CG        38.0980   27.0560   48.1650 C.3    35  LEU35       0.0019
     32  CD1       37.6230   26.7170   46.7260 C.3    35  LEU35       0.0001
     33  CD2       38.4470   28.5180   48.2580 C.3    35  LEU35       0.0001
     34  N         33.9980   23.9190   51.7300 N.3    37  LEU37      -0.1245
     35  CA        32.8910   23.5090   50.8680 C.3    37  LEU37       0.1561
     36  C         32.6900   22.0230   51.0090 C.2    37  LEU37       0.2260
     37  O         33.0360   21.2960   50.1090 O.2    37  LEU37      -0.2867
     38  CB        33.3000   23.7590   49.4270 C.3    37  LEU37       0.0270
     39  CG        33.0940   25.1050   48.7560 C.3    37  LEU37       0.0019
     40  CD1       32.9100   26.2640   49.6160 C.3    37  LEU37       0.0001
     41  CD2       34.1470   25.3120   47.6680 C.3    37  LEU37       0.0001
     42  N         31.0000   20.0390   48.0560 N.3    40  TYR40      -0.1241
     43  CA        31.4490   20.2850   46.6790 C.3    40  TYR40       0.1605
     44  C         31.5210   19.0040   45.8960 C.2    40  TYR40       0.2264
     45  O         30.9420   18.8850   44.8460 O.2    40  TYR40      -0.2867
     46  CB        32.7810   21.0790   46.6070 C.3    40  TYR40       0.0534
     47  CG        33.1510   21.4240   45.1660 C.ar   40  TYR40      -0.0201
     48  CD1       32.5430   22.5050   44.5210 C.ar   40  TYR40      -0.0009
     49  CD2       34.0170   20.6460   44.4440 C.ar   40  TYR40      -0.0009
     50  CE1       32.8690   22.8210   43.2070 C.ar   40  TYR40       0.0417
     51  CE2       34.3730   20.9640   43.0990 C.ar   40  TYR40       0.0417
     52  CZ        33.7730   22.0560   42.4970 C.ar   40  TYR40       0.1957
     53  OH        34.0400   22.3650   41.1960 O.3    40  TYR40      -0.2866
     54  N         30.9040   25.3950   37.8840 N.3    75  CYS75      -0.1235
     55  CA        30.7740   26.6210   38.6050 C.3    75  CYS75       0.1677
     56  C         29.2880   27.0650   38.6400 C.2    75  CYS75       0.2270
     57  O         28.7170   27.2730   39.7080 O.2    75  CYS75      -0.2867
     58  CB        31.8450   27.6580   38.0570 C.3    75  CYS75       0.0956
     59  SG        31.5930   29.2350   38.7670 S.3    75  CYS75      -0.0801
     60  N         27.2220   24.4530   40.9320 N.3    78  TYR78      -0.1227
     61  CA        27.5330   24.4120   42.3740 C.3    78  TYR78       0.1736
     62  C         27.1830   25.7130   43.1070 C.2    78  TYR78       0.2595
     63  O         26.5270   25.7490   44.1770 O.2    78  TYR78      -0.2718
     64  CB        29.0330   24.0420   42.5980 C.3    78  TYR78       0.0548
     65  CG        29.3080   24.0890   44.0810 C.ar   78  TYR78      -0.0200
     66  CD1       28.8160   23.0760   44.9370 C.ar   78  TYR78      -0.0009
     67  CD2       29.9120   25.1980   44.6640 C.ar   78  TYR78      -0.0009
     68  CE1       29.0050   23.1380   46.3270 C.ar   78  TYR78       0.0417
     69  CE2       30.0450   25.2740   46.0120 C.ar   78  TYR78       0.0417
     70  CZ        29.5930   24.2230   46.8420 C.ar   78  TYR78       0.1957
     71  OH        29.7790   24.3210   48.2260 O.3    78  TYR78      -0.2866
     72  N         27.6380   26.8200   42.5220 N.am   79  ASN79      -0.1974
     73  CA        27.5500   28.1090   43.1800 C.3    79  ASN79       0.1688
     74  C         26.1530   28.7060   43.1090 C.2    79  ASN79       0.2292
     75  O         25.3790   28.3910   42.2170 O.2    79  ASN79      -0.2864
     76  CB        28.5790   29.0340   42.5820 C.3    79  ASN79       0.1181
     77  CG        29.9860   28.6490   42.9990 C.2    79  ASN79       0.2629
     78  OD1       30.4170   28.9440   44.1130 O.2    79  ASN79      -0.2716
     79  ND2       30.6970   27.9700   42.1350 N.am   79  ASN79      -0.0877
     80  N         26.7800   34.5830   43.3880 N.3    83  ASP83      -0.1239
     81  CA        28.2200   34.5320   43.7120 C.3    83  ASP83       0.1674
     82  C         29.0140   35.2230   42.6250 C.2    83  ASP83       0.2266
     83  O         28.7400   35.0490   41.4540 O.2    83  ASP83      -0.2867
     84  CB        28.7040   33.0730   43.8380 C.3    83  ASP83       0.1410
     85  CG        28.2050   32.3810   45.0830 C.2    83  ASP83       0.3668
     86  OD1       27.8710   33.1420   46.0550 O.co2  83  ASP83      -0.2456
     87  OD2       28.1530   31.0850   45.2240 O.co2  83  ASP83      -0.2456
     88  N         31.9950   34.4640   41.6490 N.3    85  ILE85      -0.1245
     89  CA        32.6440   33.4240   40.8480 C.3    85  ILE85       0.1561
     90  C         31.8240   33.1150   39.5770 C.2    85  ILE85       0.2260
     91  O         32.3860   32.8450   38.5290 O.2    85  ILE85      -0.2867
     92  CB        33.0080   32.2060   41.6560 C.3    85  ILE85       0.0252
     93  CG1       34.0450   31.3920   40.9040 C.3    85  ILE85       0.0019
     94  CG2       31.8350   31.3600   41.9640 C.3    85  ILE85       0.0019
     95  CD1       34.4060   30.1710   41.5290 C.3    85  ILE85       0.0001
@<TRIPOS>BOND
     1    12    13    1
     2    12     9    1
     3    11    10    2
     4    14    13   ar
     5    14    16   ar
     6    13    15   ar
     7    16    18   ar
     8    15    17   ar
     9    18    17   ar
    10    10     9    1
    11    54    55    1
    12    58    55    1
    13    58    59    1
    14     9     8    1
    15    91    90    2
    16    55    56    1
    17    56    57    2
    18     8     3   am
    19    90    89    1
    20     7     1    1
    21     7     6    1
    22     3     4    2
    23     3     2    1
    24     1     2    1
    25    89    88    1
    26    89    92    1
    27    93    95    1
    28    93    92    1
    29    60    61    1
    30     6     5    1
    31     2     5    1
    32    53    52    1
    33    83    82    2
    34    92    94    1
    35    79    77   am
    36    75    74    2
    37    25    23    1
    38    61    64    1
    39    61    62    1
    40    52    51   ar
    41    52    50   ar
    42    19    20    1
    43    72    62   am
    44    72    73    1
    45    76    77    1
    46    76    73    1
    47    64    65    1
    48    82    81    1
    49    77    78    2
    50    51    49   ar
    51    62    63    2
    52    74    73    1
    53    50    48   ar
    54    80    81    1
    55    23    20    1
    56    23    24    1
    57    20    21    1
    58    81    84    1
    59    84    85    1
    60    65    67   ar
    61    65    66   ar
    62    49    47   ar
    63    48    47   ar
    64    67    69   ar
    65    45    44    2
    66    21    22    2
    67    66    68   ar
    68    85    87   ar
    69    85    86   ar
    70    47    46    1
    71    44    43    1
    72    69    70   ar
    73    68    70   ar
    74    46    43    1
    75    43    42    1
    76    32    31    1
    77    70    71    1
    78    41    39    1
    79    31    33    1
    80    31    30    1
    81    39    38    1
    82    39    40    1
    83    30    27    1
    84    38    35    1
    85    37    36    2
    86    27    26    1
    87    27    28    1
    88    35    36    1
    89    35    34    1
    90    29    28    2
