@<TRIPOS>MOLECULE
tmp/1x0kA05.pdb
 89 87 0 0 0
SMALL
GASTEIGER

@<TRIPOS>ATOM
      1  N         45.4820   11.2010    7.2670 N.3   127  TYR127     -0.1241
      2  CA        44.1800   10.7730    7.7840 C.3   127  TYR127      0.1605
      3  C         44.2520    9.7130    8.8750 C.2   127  TYR127      0.2264
      4  O         43.6080    9.8290    9.9150 O.2   127  TYR127     -0.2867
      5  CB        43.2840   10.2840    6.6410 C.3   127  TYR127      0.0534
      6  CG        41.8760    9.9340    7.0690 C.ar  127  TYR127     -0.0201
      7  CD1       40.9660   10.9300    7.4220 C.ar  127  TYR127     -0.0009
      8  CD2       41.4810    8.6040    7.2040 C.ar  127  TYR127     -0.0009
      9  CE1       39.6980   10.6100    7.9120 C.ar  127  TYR127      0.0417
     10  CE2       40.2210    8.2700    7.6910 C.ar  127  TYR127      0.0417
     11  CZ        39.3340    9.2760    8.0500 C.ar  127  TYR127      0.1957
     12  OH        38.1070    8.9480    8.5960 O.3   127  TYR127     -0.2866
     13  N         43.9430    9.5360   14.1660 N.3   131  PHE131     -0.1227
     14  CA        43.3390    8.6970   15.1920 C.3   131  PHE131      0.1736
     15  C         44.3200    8.2560   16.2560 C.2   131  PHE131      0.2595
     16  O         43.9280    7.8950   17.3660 O.2   131  PHE131     -0.2718
     17  CB        42.6320    7.5190   14.5460 C.3   131  PHE131      0.0547
     18  CG        41.5390    7.9380   13.6110 C.ar  131  PHE131     -0.0202
     19  CD1       40.2760    8.2760   14.1050 C.ar  131  PHE131     -0.0042
     20  CD2       41.8100    8.1400   12.2610 C.ar  131  PHE131     -0.0042
     21  CE1       39.3020    8.8120   13.2780 C.ar  131  PHE131     -0.0003
     22  CE2       40.8460    8.6760   11.4160 C.ar  131  PHE131     -0.0003
     23  CZ        39.5830    9.0150   11.9270 C.ar  131  PHE131     -0.0000
     24  N         45.6040    8.3020   15.9200 N.am  132  VAL132     -0.1980
     25  CA        46.6260    7.9630   16.8930 C.3   132  VAL132      0.1595
     26  C         46.5680    9.0730   17.9320 C.2   132  VAL132      0.2287
     27  O         46.5280    8.8160   19.1420 O.2   132  VAL132     -0.2864
     28  CB        48.0290    7.9470   16.2620 C.3   132  VAL132      0.0276
     29  CG1       49.0750    7.6120   17.3150 C.3   132  VAL132      0.0022
     30  CG2       48.0770    6.9370   15.1440 C.3   132  VAL132      0.0022
     31  N         44.0880   11.1190   18.4750 N.3   134  TRP134     -0.1227
     32  CA        42.8170   11.0650   19.1740 C.3   134  TRP134      0.1737
     33  C         42.9800   10.0570   20.2880 C.2   134  TRP134      0.2595
     34  O         42.5260   10.2730   21.4120 O.2   134  TRP134     -0.2718
     35  CB        41.6910   10.6350   18.2270 C.3   134  TRP134      0.0564
     36  CG        40.4170   10.2810   18.9240 C.ar  134  TRP134      0.0003
     37  CD1       39.3570   11.1010   19.1510 C.ar  134  TRP134      0.0946
     38  CD2       40.0810    9.0180   19.5150 C.ar  134  TRP134      0.0152
     39  NE1       38.3780   10.4350   19.8510 N.ar  134  TRP134     -0.2442
     40  CE2       38.7980    9.1530   20.0870 C.ar  134  TRP134      0.0810
     41  CE3       40.7440    7.7890   19.6250 C.ar  134  TRP134      0.0012
     42  CZ2       38.1610    8.1060   20.7570 C.ar  134  TRP134      0.0191
     43  CZ3       40.1140    6.7460   20.3010 C.ar  134  TRP134      0.0001
     44  CH2       38.8350    6.9140   20.8560 C.ar  134  TRP134      0.0015
     45  N         43.6780    8.9720   19.9860 N.am  135  ALA135     -0.1980
     46  CA        43.8780    7.9140   20.9690 C.3   135  ALA135      0.1597
     47  C         44.7210    8.3910   22.1510 C.2   135  ALA135      0.2287
     48  O         44.4360    8.0490   23.3010 O.2   135  ALA135     -0.2864
     49  CB        44.5020    6.6830   20.3180 C.3   135  ALA135      0.0319
     50  N         33.7960   11.4020   21.5490 N.3   183  VAL183     -0.1245
     51  CA        32.8580   10.6650   20.7220 C.3   183  VAL183      0.1561
     52  C         32.3680   11.5730   19.6040 C.2   183  VAL183      0.2260
     53  O         32.2340   11.1440   18.4550 O.2   183  VAL183     -0.2867
     54  CB        31.6670   10.1500   21.5390 C.3   183  VAL183      0.0252
     55  CG1       30.6990    9.4080   20.6300 C.3   183  VAL183      0.0019
     56  CG2       32.1560    9.2570   22.6640 C.3   183  VAL183      0.0019
     57  N         35.1540   11.8570   17.0950 N.3   186  LEU186     -0.1231
     58  CA        35.2800   10.6200   16.3490 C.3   186  LEU186      0.1693
     59  C         34.2190   10.4290   15.2700 C.2   186  LEU186      0.2591
     60  O         34.4430    9.7070   14.3000 O.2   186  LEU186     -0.2718
     61  CB        35.2440    9.4400   17.3170 C.3   186  LEU186      0.0284
     62  CG        35.9350    8.1610   16.8500 C.3   186  LEU186      0.0019
     63  CD1       37.3960    8.4540   16.5140 C.3   186  LEU186      0.0001
     64  CD2       35.8280    7.1000   17.9300 C.3   186  LEU186      0.0001
     65  N         33.0700   11.0730   15.4300 N.am  187  ILE187     -0.1980
     66  CA        31.9940   10.9100   14.4620 C.3   187  ILE187      0.1595
     67  C         31.7720   12.1580   13.6170 C.2   187  ILE187      0.2287
     68  O         31.0000   12.1370   12.6490 O.2   187  ILE187     -0.2864
     69  CB        30.6680   10.5160   15.1530 C.3   187  ILE187      0.0276
     70  CG1       30.0640   11.7220   15.8790 C.3   187  ILE187      0.0022
     71  CG2       30.8980    9.3570   16.1270 C.3   187  ILE187      0.0022
     72  CD1       28.7850   11.3940   16.6110 C.3   187  ILE187      0.0001
     73  N         35.8320   10.4550   11.5200 N.3   192  ALA192     -0.1231
     74  CA        35.1800    9.5730   10.5470 C.3   192  ALA192      0.1697
     75  C         33.8300   10.1090   10.0540 C.2   192  ALA192      0.2632
     76  O         32.8550    9.3570    9.9780 O.2   192  ALA192     -0.2714
     77  CB        34.9960    8.1880   11.1460 C.3   192  ALA192      0.0304
     78  N         33.7960   11.3940    9.7040 N.am  193  GLY193     -0.1718
     79  CA        32.5910   12.0630    9.2300 C.2   193  GLY193      0.1480
     80  C         31.3070   11.2740    9.0350 C.2   193  GLY193      0.2820
     81  O         30.9680   10.9060    7.9160 O.2   193  GLY193     -0.2669
     82  N         30.5810   11.0280   10.1200 N.am  194  ILE194     -0.1943
     83  CA        29.3000   10.3200   10.0600 C.3   194  ILE194      0.1599
     84  C         28.2070   11.3700   10.2740 C.2   194  ILE194      0.2287
     85  O         27.0900   11.2570    9.7610 O.2   194  ILE194     -0.2864
     86  CB        29.2130    9.2420   11.1650 C.3   194  ILE194      0.0276
     87  CG1       30.2570    8.1520   10.9160 C.3   194  ILE194      0.0022
     88  CG2       27.8190    8.6650   11.2380 C.3   194  ILE194      0.0022
     89  CD1       30.6340    7.3660   12.1510 C.3   194  ILE194      0.0001
@<TRIPOS>BOND
     1     5     6    1
     2     5     2    1
     3     6     8   ar
     4     6     7   ar
     5     8    10   ar
     6     1     2    1
     7     7     9   ar
     8    10    11   ar
     9     2     3    1
    10     9    11   ar
    11    81    80    2
    12    11    12    1
    13     3     4    2
    14    80    79    1
    15    80    82   am
    16    79    78    2
    17    78    75    1
    18    85    84    2
    19    76    75    2
    20    75    74    1
    21    83    82    1
    22    83    84    1
    23    83    86    1
    24    74    77    1
    25    74    73    1
    26    87    86    1
    27    87    89    1
    28    86    88    1
    29    22    23   ar
    30    22    20   ar
    31    23    21   ar
    32    20    18   ar
    33    68    67    2
    34    21    19   ar
    35    18    19   ar
    36    18    17    1
    37    67    66    1
    38    13    14    1
    39    60    59    2
    40    66    69    1
    41    66    65    1
    42    17    14    1
    43    30    28    1
    44    69    70    1
    45    69    71    1
    46    14    15    1
    47    59    65   am
    48    59    58    1
    49    70    72    1
    50    24    15   am
    51    24    25    1
    52    15    16    2
    53    28    25    1
    54    28    29    1
    55    58    57    1
    56    58    61    1
    57    63    62    1
    58    62    61    1
    59    62    64    1
    60    25    26    1
    61    26    27    2
    62    35    36    1
    63    35    32    1
    64    53    52    2
    65    31    32    1
    66    36    37   ar
    67    36    38   ar
    68    37    39   ar
    69    32    33    1
    70    38    41   ar
    71    38    40   ar
    72    52    51    1
    73    41    43   ar
    74    39    40   ar
    75    45    33   am
    76    45    46    1
    77    40    42   ar
    78    33    34    2
    79    43    44   ar
    80    49    46    1
    81    55    54    1
    82    51    54    1
    83    51    50    1
    84    42    44   ar
    85    46    47    1
    86    54    56    1
    87    47    48    2
