@<TRIPOS>MOLECULE
tmp/1x0kA04.pdb
 85 80 0 0 0
SMALL
GASTEIGER

@<TRIPOS>ATOM
      1  N         29.4870   27.1370    6.9540 N.3     3  ARG3       -0.1245
      2  CA        28.5770   28.2790    6.9220 C.3     3  ARG3        0.1563
      3  C         27.1880   27.9410    7.4640 C.2     3  ARG3        0.2260
      4  O         26.5520   28.7740    8.0960 O.2     3  ARG3       -0.2867
      5  CB        28.4700   28.8490    5.5070 C.3     3  ARG3        0.0307
      6  CG        27.1060   29.4200    5.1580 C.3     3  ARG3        0.0489
      7  CD        27.2240   30.6830    4.3230 C.3     3  ARG3        0.2205
      8  NE        26.9340   31.8870    5.1000 N.pl3   3  ARG3       -0.0865
      9  CZ        25.8170   32.0730    5.7960 C.cat   3  ARG3        0.5346
     10  NH1       24.8860   31.1290    5.8190 N.pl3   3  ARG3        0.1354
     11  NH2       25.6090   33.2160    6.4380 N.pl3   3  ARG3        0.1354
     12  N         26.7290   28.3370   11.1550 N.3     6  TRP6       -0.1241
     13  CA        26.7940   29.6950   11.6780 C.3     6  TRP6        0.1605
     14  C         25.7590   29.9270   12.7730 C.2     6  TRP6        0.2264
     15  O         26.0170   30.6360   13.7440 O.2     6  TRP6       -0.2867
     16  CB        26.5720   30.7150   10.5560 C.3     6  TRP6        0.0550
     17  CG        25.1220   30.8960   10.2040 C.ar    6  TRP6        0.0003
     18  CD1       24.3880   30.1270    9.3490 C.ar    6  TRP6        0.0946
     19  CD2       24.1990   31.8060   10.8150 C.ar    6  TRP6        0.0152
     20  NE1       23.0650   30.4920    9.3960 N.ar    6  TRP6       -0.2442
     21  CE2       22.9200   31.5220   10.2870 C.ar    6  TRP6        0.0810
     22  CE3       24.3250   32.8300   11.7600 C.ar    6  TRP6        0.0012
     23  CZ2       21.7750   32.2280   10.6720 C.ar    6  TRP6        0.0191
     24  CZ3       23.1830   33.5330   12.1450 C.ar    6  TRP6        0.0001
     25  CH2       21.9280   33.2270   11.6000 C.ar    6  TRP6        0.0015
     26  N         26.7560   31.5350   16.3510 N.3    10  ALA10      -0.1245
     27  CA        26.1820   32.7850   16.8270 C.3    10  ALA10       0.1562
     28  C         25.4280   32.5830   18.1300 C.2    10  ALA10       0.2260
     29  O         25.5160   33.4120   19.0330 O.2    10  ALA10      -0.2867
     30  CB        25.2670   33.3780   15.7770 C.3    10  ALA10       0.0290
     31  N         27.9170   32.1130   20.7500 N.3    13  THR13      -0.1203
     32  CA        28.5210   33.3810   21.1160 C.3    13  THR13       0.1994
     33  C         27.6300   34.1030   22.1110 C.2    13  THR13       0.2617
     34  O         28.0740   34.4740   23.1940 O.2    13  THR13      -0.2717
     35  CB        28.7640   34.2870   19.8970 C.3    13  THR13       0.1784
     36  OG1       29.7850   33.7180   19.0700 O.3    13  THR13      -0.2211
     37  CG2       29.2170   35.6720   20.3440 C.3    13  THR13       0.0376
     38  N         26.3610   34.2580   21.7640 N.am   14  ALA14      -0.1979
     39  CA        25.4200   34.9370   22.6540 C.3    14  ALA14       0.1597
     40  C         25.3930   34.3160   24.0610 C.2    14  ALA14       0.2287
     41  O         25.5790   35.0130   25.0650 O.2    14  ALA14      -0.2864
     42  CB        24.0230   34.9470   22.0410 C.3    14  ALA14       0.0319
     43  N         28.5420   37.8090   31.2950 N.3    21  LEU21      -0.1245
     44  CA        27.8870   38.9900   31.8390 C.3    21  LEU21       0.1561
     45  C         27.1570   38.6940   33.1350 C.2    21  LEU21       0.2260
     46  O         27.3630   39.3640   34.1570 O.2    21  LEU21      -0.2867
     47  CB        26.9040   39.5530   30.8170 C.3    21  LEU21       0.0270
     48  CG        27.5120   40.4550   29.7460 C.3    21  LEU21       0.0019
     49  CD1       26.4380   40.8550   28.7380 C.3    21  LEU21       0.0001
     50  CD2       28.1280   41.6880   30.4050 C.3    21  LEU21       0.0001
     51  N         33.6990   32.8180   24.8380 N.3    50  PHE50      -0.1241
     52  CA        33.0370   33.8620   24.0900 C.3    50  PHE50       0.1605
     53  C         33.8990   34.2840   22.9130 C.2    50  PHE50       0.2264
     54  O         33.4810   34.1960   21.7600 O.2    50  PHE50      -0.2867
     55  CB        32.7430   35.0760   24.9710 C.3    50  PHE50       0.0534
     56  CG        32.3920   36.3130   24.1900 C.ar   50  PHE50      -0.0203
     57  CD1       31.1820   36.4010   23.5050 C.ar   50  PHE50      -0.0042
     58  CD2       33.2910   37.3720   24.1040 C.ar   50  PHE50      -0.0042
     59  CE1       30.8760   37.5290   22.7440 C.ar   50  PHE50      -0.0003
     60  CE2       32.9990   38.5060   23.3480 C.ar   50  PHE50      -0.0003
     61  CZ        31.7920   38.5870   22.6660 C.ar   50  PHE50      -0.0000
     62  N         33.0930   33.5730   18.9160 N.3    54  LEU54      -0.1245
     63  CA        33.0280   34.7410   18.0530 C.3    54  LEU54       0.1561
     64  C         34.0280   34.6260   16.9030 C.2    54  LEU54       0.2260
     65  O         33.7240   35.0100   15.7680 O.2    54  LEU54      -0.2867
     66  CB        33.2980   36.0190   18.8550 C.3    54  LEU54       0.0270
     67  CG        33.2440   37.3170   18.0420 C.3    54  LEU54       0.0019
     68  CD1       31.9280   37.4170   17.2610 C.3    54  LEU54       0.0001
     69  CD2       33.4190   38.5120   18.9520 C.3    54  LEU54       0.0001
     70  N         32.4500   32.3710   14.4320 N.3    57  LEU57      -0.1231
     71  CA        31.3170   32.9940   13.7700 C.3    57  LEU57       0.1693
     72  C         31.7910   34.0290   12.7470 C.2    57  LEU57       0.2591
     73  O         31.0610   34.3500   11.8060 O.2    57  LEU57      -0.2718
     74  CB        30.3830   33.6450   14.7960 C.3    57  LEU57       0.0284
     75  CG        29.1380   34.3790   14.2860 C.3    57  LEU57       0.0019
     76  CD1       28.2220   33.4440   13.5160 C.3    57  LEU57       0.0001
     77  CD2       28.3900   34.9970   15.4630 C.3    57  LEU57       0.0001
     78  N         33.0250   34.5080   12.8950 N.am   58  LEU58      -0.1980
     79  CA        33.5700   35.4990   11.9700 C.3    58  LEU58       0.1596
     80  C         34.5470   34.9160   10.9600 C.2    58  LEU58       0.2287
     81  O         35.1600   35.6530   10.1830 O.2    58  LEU58      -0.2864
     82  CB        34.2390   36.6370   12.7300 C.3    58  LEU58       0.0297
     83  CG        33.2960   37.4710   13.5910 C.3    58  LEU58       0.0022
     84  CD1       34.0990   38.4600   14.4190 C.3    58  LEU58       0.0001
     85  CD2       32.2930   38.1930   12.6990 C.3    58  LEU58       0.0001
@<TRIPOS>BOND
     1     7     8    1
     2     7     6    1
     3     8     9    2
     4     6     5    1
     5     5     2    1
     6     9    10    1
     7     9    11    1
     8     2     1    1
     9     2     3    1
    10     3     4    2
    11    18    20   ar
    12    18    17   ar
    13    20    21   ar
    14    81    80    2
    15    17    16    1
    16    17    19   ar
    17    21    23   ar
    18    21    19   ar
    19    16    13    1
    20    23    25   ar
    21    19    22   ar
    22    80    79    1
    23    12    13    1
    24    25    24   ar
    25    13    14    1
    26    22    24   ar
    27    73    72    2
    28    79    82    1
    29    79    78    1
    30    85    83    1
    31    82    83    1
    32    72    78   am
    33    72    71    1
    34    14    15    2
    35    76    75    1
    36    83    84    1
    37    71    70    1
    38    71    74    1
    39    75    74    1
    40    75    77    1
    41    65    64    2
    42    30    27    1
    43    26    27    1
    44    27    28    1
    45    64    63    1
    46    68    67    1
    47    67    66    1
    48    67    69    1
    49    63    66    1
    50    63    62    1
    51    28    29    2
    52    36    35    1
    53    35    37    1
    54    35    32    1
    55    31    32    1
    56    32    33    1
    57    54    53    2
    58    38    33   am
    59    38    39    1
    60    42    39    1
    61    33    34    2
    62    39    40    1
    63    61    59   ar
    64    61    60   ar
    65    59    57   ar
    66    53    52    1
    67    60    58   ar
    68    57    56   ar
    69    40    41    2
    70    52    51    1
    71    52    55    1
    72    58    56   ar
    73    56    55    1
    74    49    48    1
    75    48    50    1
    76    48    47    1
    77    47    44    1
    78    43    44    1
    79    44    45    1
    80    45    46    2
