@<TRIPOS>MOLECULE
tmp/1x0kA02.pdb
 123 115 0 0 0
SMALL
GASTEIGER

@<TRIPOS>ATOM
      1  N         28.5540   34.9920   26.0200 N.3    17  GLY17      -0.1225
      2  CA        28.6400   36.3840   26.4070 C.3    17  GLY17       0.1811
      3  C         27.7020   36.7080   27.5480 C.2    17  GLY17       0.2280
      4  O         28.0980   37.3260   28.5390 O.2    17  GLY17      -0.2866
      5  N         28.7620   35.0570   30.6880 N.3    20  THR20      -0.1203
      6  CA        29.8580   35.7960   31.2750 C.3    20  THR20       0.1994
      7  C         29.2490   36.9610   32.0360 C.2    20  THR20       0.2617
      8  O         29.3840   37.0620   33.2580 O.2    20  THR20      -0.2717
      9  CB        30.7920   36.3450   30.1860 C.3    20  THR20       0.1784
     10  OG1       31.2420   35.2670   29.3590 O.3    20  THR20      -0.2211
     11  CG2       31.9860   37.0270   30.7970 C.3    20  THR20       0.0376
     12  N         28.5420   37.8090   31.2950 N.am   21  LEU21      -0.1979
     13  CA        27.8870   38.9900   31.8390 C.3    21  LEU21       0.1596
     14  C         27.1570   38.6940   33.1350 C.2    21  LEU21       0.2287
     15  O         27.3630   39.3640   34.1570 O.2    21  LEU21      -0.2864
     16  CB        26.9040   39.5530   30.8170 C.3    21  LEU21       0.0297
     17  CG        27.5120   40.4550   29.7460 C.3    21  LEU21       0.0022
     18  CD1       26.4380   40.8550   28.7380 C.3    21  LEU21       0.0001
     19  CD2       28.1280   41.6880   30.4050 C.3    21  LEU21       0.0001
     20  N         29.5710   37.9270   35.9010 N.3    24  LEU24      -0.1231
     21  CA        30.1950   39.1890   36.3080 C.3    24  LEU24       0.1693
     22  C         29.2320   39.8980   37.2500 C.2    24  LEU24       0.2591
     23  O         29.6070   40.3180   38.3400 O.2    24  LEU24      -0.2718
     24  CB        30.4430   40.0890   35.0980 C.3    24  LEU24       0.0284
     25  CG        31.8040   39.9990   34.4210 C.3    24  LEU24       0.0019
     26  CD1       31.8700   40.9970   33.2690 C.3    24  LEU24       0.0001
     27  CD2       32.9070   40.2590   35.4420 C.3    24  LEU24       0.0001
     28  N         27.9980   40.0600   36.7870 N.am   25  VAL25      -0.1980
     29  CA        26.9530   40.6900   37.5810 C.3    25  VAL25       0.1595
     30  C         26.4870   39.6530   38.5830 C.2    25  VAL25       0.2287
     31  O         25.4640   39.0050   38.3800 O.2    25  VAL25      -0.2864
     32  CB        25.7430   41.0950   36.6980 C.3    25  VAL25       0.0276
     33  CG1       24.6010   41.5930   37.5550 C.3    25  VAL25       0.0022
     34  CG2       26.1600   42.1510   35.6960 C.3    25  VAL25       0.0022
     35  N         29.3000   38.6020   40.9540 N.3    27  GLY27      -0.1210
     36  CA        30.5320   38.5010   41.7060 C.3    27  GLY27       0.1956
     37  C         30.9500   39.8240   42.3100 C.2    27  GLY27       0.2611
     38  O         31.8760   39.8750   43.1200 O.2    27  GLY27      -0.2717
     39  N         30.2370   40.8860   41.9470 N.am   28  MET28      -0.1979
     40  CA        30.5650   42.2350   42.4100 C.3    28  MET28       0.1605
     41  C         30.6590   42.3820   43.9230 C.2    28  MET28       0.2287
     42  O         31.7260   42.6880   44.4630 O.2    28  MET28      -0.2864
     43  CB        29.5620   43.2510   41.8660 C.3    28  MET28       0.0413
     44  CG        29.6330   43.4560   40.3680 C.3    28  MET28       0.0598
     45  SD        28.5620   44.7990   39.8240 S.3    28  MET28      -0.1393
     46  CE        26.9600   44.2260   40.4150 C.3    28  MET28       0.0692
     47  N         30.5180   40.1260   46.2650 N.3    30  VAL30      -0.1231
     48  CA        31.2720   39.0710   46.9300 C.3    30  VAL30       0.1692
     49  C         32.5760   39.5800   47.5280 C.2    30  VAL30       0.2592
     50  O         33.4180   40.1470   46.8260 O.2    30  VAL30      -0.2718
     51  CB        31.5610   37.9100   45.9660 C.3    30  VAL30       0.0266
     52  CG1       32.4050   36.8360   46.6570 C.3    30  VAL30       0.0020
     53  CG2       30.2460   37.3340   45.4500 C.3    30  VAL30       0.0020
     54  N         32.7430   39.3490   48.8270 N.am   31  SER31      -0.1952
     55  CA        33.9240   39.8100   49.5500 C.3    31  SER31       0.1924
     56  C         34.8260   38.6680   50.0080 C.2    31  SER31       0.2314
     57  O         36.0360   38.8430   50.1400 O.2    31  SER31      -0.2863
     58  CB        33.4980   40.6590   50.7520 C.3    31  SER31       0.2116
     59  OG        32.3500   40.1100   51.3860 O.3    31  SER31      -0.2180
     60  N         35.7290   34.6370   46.0860 N.3    36  LYS36      -0.1245
     61  CA        36.3120   35.4960   45.0670 C.3    36  LYS36       0.1561
     62  C         37.0180   34.6770   43.9740 C.2    36  LYS36       0.2260
     63  O         36.7930   34.8850   42.7800 O.2    36  LYS36      -0.2867
     64  CB        37.2930   36.4760   45.7240 C.3    36  LYS36       0.0271
     65  CG        37.7200   37.6410   44.8340 C.3    36  LYS36       0.0035
     66  CD        38.7380   38.5490   45.5240 C.3    36  LYS36       0.0206
     67  CE        38.1450   39.2680   46.7250 C.3    36  LYS36       0.1093
     68  NZ        37.0320   40.1730   46.3430 N.3    36  LYS36      -0.1314
     69  N         34.6970   32.9520   41.6010 N.3    39  TYR39      -0.1227
     70  CA        34.0500   33.8050   40.6150 C.3    39  TYR39       0.1736
     71  C         35.0140   34.1340   39.4790 C.2    39  TYR39       0.2595
     72  O         34.6430   34.0790   38.3070 O.2    39  TYR39      -0.2718
     73  CB        33.4690   35.0800   41.2440 C.3    39  TYR39       0.0548
     74  CG        32.0550   34.9190   41.7810 C.ar   39  TYR39      -0.0200
     75  CD1       31.8220   34.7060   43.1400 C.ar   39  TYR39      -0.0009
     76  CD2       30.9540   34.9860   40.9250 C.ar   39  TYR39      -0.0009
     77  CE1       30.5290   34.5580   43.6310 C.ar   39  TYR39       0.0417
     78  CE2       29.6590   34.8550   41.4030 C.ar   39  TYR39       0.0417
     79  CZ        29.4450   34.6390   42.7550 C.ar   39  TYR39       0.1957
     80  OH        28.1520   34.5040   43.2340 O.3    39  TYR39      -0.2866
     81  N         36.2660   34.4200   39.8200 N.am   40  ALA40      -0.1980
     82  CA        37.2570   34.7360   38.8040 C.3    40  ALA40       0.1597
     83  C         37.3690   33.6050   37.7850 C.2    40  ALA40       0.2287
     84  O         37.1360   33.8000   36.5870 O.2    40  ALA40      -0.2864
     85  CB        38.5930   35.0000   39.4450 C.3    40  ALA40       0.0319
     86  N         34.1890   32.8580   35.9390 N.3    43  THR43      -0.1203
     87  CA        33.7910   33.9470   35.0550 C.3    43  THR43       0.1994
     88  C         34.6920   33.9160   33.8400 C.2    43  THR43       0.2617
     89  O         34.2180   34.1000   32.7140 O.2    43  THR43      -0.2717
     90  CB        33.8900   35.3560   35.7320 C.3    43  THR43       0.1784
     91  OG1       32.9010   35.4780   36.7560 O.3    43  THR43      -0.2211
     92  CG2       33.6270   36.4490   34.7350 C.3    43  THR43       0.0376
     93  N         35.9890   33.7010   34.0680 N.am   44  LEU44      -0.1979
     94  CA        36.9730   33.6780   32.9770 C.3    44  LEU44       0.1596
     95  C         36.6580   32.6270   31.9330 C.2    44  LEU44       0.2287
     96  O         36.8970   32.8210   30.7440 O.2    44  LEU44      -0.2864
     97  CB        38.3880   33.4220   33.5060 C.3    44  LEU44       0.0297
     98  CG        39.2750   34.6400   33.7790 C.3    44  LEU44       0.0022
     99  CD1       40.5690   34.1870   34.4360 C.3    44  LEU44       0.0001
    100  CD2       39.5590   35.4060   32.4840 C.3    44  LEU44       0.0001
    101  N         34.1310   33.6020   29.3180 N.3    47  ALA47      -0.1245
    102  CA        34.6900   34.7750   28.6520 C.3    47  ALA47       0.1562
    103  C         35.6320   34.3550   27.5450 C.2    47  ALA47       0.2260
    104  O         35.6920   34.9880   26.4860 O.2    47  ALA47      -0.2867
    105  CB        35.4150   35.6600   29.6430 C.3    47  ALA47       0.0290
    106  N         33.6990   32.8180   24.8380 N.3    50  PHE50      -0.1227
    107  CA        33.0370   33.8620   24.0900 C.3    50  PHE50       0.1736
    108  C         33.8990   34.2840   22.9130 C.2    50  PHE50       0.2596
    109  O         33.4810   34.1960   21.7600 O.2    50  PHE50      -0.2718
    110  CB        32.7430   35.0760   24.9710 C.3    50  PHE50       0.0547
    111  CG        32.3920   36.3130   24.1900 C.ar   50  PHE50      -0.0202
    112  CD1       31.1820   36.4010   23.5050 C.ar   50  PHE50      -0.0042
    113  CD2       33.2910   37.3720   24.1040 C.ar   50  PHE50      -0.0042
    114  CE1       30.8760   37.5290   22.7440 C.ar   50  PHE50      -0.0003
    115  CE2       32.9990   38.5060   23.3480 C.ar   50  PHE50      -0.0003
    116  CZ        31.7920   38.5870   22.6660 C.ar   50  PHE50      -0.0000
    117  N         35.1060   34.7450   23.2110 N.am   51  THR51      -0.1953
    118  CA        36.0310   35.2110   22.1870 C.3    51  THR51       0.1897
    119  C         36.2900   34.1760   21.0960 C.2    51  THR51       0.2313
    120  O         36.4810   34.5220   19.9270 O.2    51  THR51      -0.2863
    121  CB        37.3760   35.6170   22.8130 C.3    51  THR51       0.1794
    122  OG1       38.0390   34.4510   23.3320 O.3    51  THR51      -0.2208
    123  CG2       37.1370   36.6290   23.9420 C.3    51  THR51       0.0378
@<TRIPOS>BOND
     1   120   119    2
     2   119   118    1
     3   109   108    2
     4   118   121    1
     5   118   117    1
     6   116   114   ar
     7   116   115   ar
     8   114   112   ar
     9   121   122    1
    10   121   123    1
    11   108   117   am
    12   108   107    1
    13   115   113   ar
    14   112   111   ar
    15   107   106    1
    16   107   110    1
    17   113   111   ar
    18   111   110    1
    19     1     2    1
    20     2     3    1
    21   104   103    2
    22   103   102    1
    23     3     4    2
    24   102   101    1
    25   102   105    1
    26    18    17    1
    27    10     9    1
    28    17    19    1
    29    17    16    1
    30     9    11    1
    31     9     6    1
    32     5     6    1
    33    96    95    2
    34    16    13    1
    35     6     7    1
    36    12    13    1
    37    12     7   am
    38    13    14    1
    39    95    94    1
    40     7     8    2
    41   100    98    1
    42    89    88    2
    43    94    97    1
    44    94    93    1
    45    14    15    2
    46    26    25    1
    47    97    98    1
    48    98    99    1
    49    88    93   am
    50    88    87    1
    51    25    24    1
    52    25    27    1
    53    92    90    1
    54    87    90    1
    55    87    86    1
    56    24    21    1
    57    34    32    1
    58    90    91    1
    59    20    21    1
    60    21    22    1
    61    84    83    2
    62    32    33    1
    63    32    29    1
    64    28    22   am
    65    28    29    1
    66    22    23    2
    67    29    30    1
    68    83    82    1
    69    72    71    2
    70    31    30    2
    71    82    85    1
    72    82    81    1
    73    71    81   am
    74    71    70    1
    75    45    44    1
    76    45    46    1
    77    44    43    1
    78    70    73    1
    79    70    69    1
    80    76    78   ar
    81    76    74   ar
    82    35    36    1
    83    73    74    1
    84    78    79   ar
    85    36    37    1
    86    74    75   ar
    87    43    40    1
    88    39    37   am
    89    39    40    1
    90    37    38    2
    91    40    41    1
    92    79    80    1
    93    79    77   ar
    94    63    62    2
    95    75    77   ar
    96    41    42    2
    97    62    61    1
    98    65    66    1
    99    65    64    1
   100    61    64    1
   101    61    60    1
   102    53    51    1
   103    66    67    1
   104    51    52    1
   105    51    48    1
   106    47    48    1
   107    68    67    1
   108    50    49    2
   109    48    49    1
   110    49    54   am
   111    54    55    1
   112    55    56    1
   113    55    58    1
   114    56    57    2
   115    58    59    1
