@<TRIPOS>MOLECULE
tmp/1x0kA03.pdb
 91 85 0 0 0
SMALL
GASTEIGER

@<TRIPOS>ATOM
      1  N         42.0840   24.8420   25.6230 N.3    83  LEU83      -0.1231
      2  CA        43.4180   24.8470   26.2140 C.3    83  LEU83       0.1693
      3  C         43.4910   25.5860   27.5600 C.2    83  LEU83       0.2592
      4  O         44.1370   25.1160   28.4950 O.2    83  LEU83      -0.2718
      5  CB        44.3910   25.4860   25.2310 C.3    83  LEU83       0.0284
      6  CG        45.8900   25.3000   25.4440 C.3    83  LEU83       0.0019
      7  CD1       46.2660   23.8700   25.0780 C.3    83  LEU83       0.0001
      8  CD2       46.6330   26.2800   24.5500 C.3    83  LEU83       0.0001
      9  N         42.8530   26.7480   27.6490 N.am   84  PHE84      -0.1976
     10  CA        42.8500   27.5350   28.8840 C.3    84  PHE84       0.1639
     11  C         41.6080   27.2310   29.7110 C.2    84  PHE84       0.2290
     12  O         41.6140   27.2450   30.9490 O.2    84  PHE84      -0.2864
     13  CB        42.8450   29.0260   28.5400 C.3    84  PHE84       0.0560
     14  CG        44.0330   29.4600   27.7350 C.ar   84  PHE84      -0.0200
     15  CD1       45.2430   29.7530   28.3630 C.ar   84  PHE84      -0.0042
     16  CD2       43.9740   29.4750   26.3490 C.ar   84  PHE84      -0.0042
     17  CE1       46.3830   30.0440   27.6050 C.ar   84  PHE84      -0.0003
     18  CE2       45.1010   29.7620   25.5880 C.ar   84  PHE84      -0.0003
     19  CZ        46.3080   30.0430   26.2130 C.ar   84  PHE84      -0.0000
     20  N         41.5490   23.5000   31.7830 N.3    87  PRO87      -0.2116
     21  CA        42.3190   23.5640   33.0350 C.3    87  PRO87       0.1372
     22  C         41.6200   24.5170   34.0390 C.2    87  PRO87       0.2244
     23  O         41.5680   24.2470   35.2400 O.2    87  PRO87      -0.2868
     24  CB        43.6640   24.1460   32.5950 C.3    87  PRO87       0.0268
     25  CG        43.6870   23.9770   31.1190 C.3    87  PRO87       0.0207
     26  CD        42.2950   24.0870   30.6580 C.3    87  PRO87       0.0892
     27  N         48.8280   20.0730   39.5140 N.3   105  LEU105     -0.1245
     28  CA        49.8130   20.2080   38.4530 C.3   105  LEU105      0.1561
     29  C         49.7110   19.0330   37.4870 C.2   105  LEU105      0.2260
     30  O         49.7820   19.1940   36.2620 O.2   105  LEU105     -0.2867
     31  CB        51.2070   20.2480   39.0610 C.3   105  LEU105      0.0270
     32  CG        52.3730   20.1680   38.0790 C.3   105  LEU105      0.0019
     33  CD1       52.1070   21.0710   36.8780 C.3   105  LEU105      0.0001
     34  CD2       53.6620   20.5720   38.7840 C.3   105  LEU105      0.0001
     35  N         46.4900   19.6000   35.3670 N.3   108  VAL108     -0.1231
     36  CA        46.6810   20.7150   34.4370 C.3   108  VAL108      0.1692
     37  C         47.5690   20.2640   33.2820 C.2   108  VAL108      0.2592
     38  O         47.3270   20.6170   32.1250 O.2   108  VAL108     -0.2718
     39  CB        47.3490   21.9350   35.1370 C.3   108  VAL108      0.0266
     40  CG1       48.0290   22.8450   34.1160 C.3   108  VAL108      0.0020
     41  CG2       46.3200   22.7190   35.9180 C.3   108  VAL108      0.0020
     42  N         48.5970   19.4840   33.6100 N.am  109  GLY109     -0.1957
     43  CA        49.5080   18.9850   32.5970 C.3   109  GLY109      0.1869
     44  C         48.8780   17.9260   31.7230 C.2   109  GLY109      0.2309
     45  O         49.1450   17.8640   30.5210 O.2   109  GLY109     -0.2863
     46  N         46.5740   19.8320   29.2910 N.3   112  GLY112     -0.1210
     47  CA        47.2560   20.5290   28.2210 C.3   112  GLY112      0.1956
     48  C         47.6990   19.5170   27.1930 C.2   112  GLY112      0.2611
     49  O         47.7100   19.7960   25.9930 O.2   112  GLY112     -0.2717
     50  N         48.0520   18.3240   27.6610 N.am  113  ILE113     -0.1979
     51  CA        48.4770   17.2900   26.7380 C.3   113  ILE113      0.1595
     52  C         47.2730   16.8860   25.9130 C.2   113  ILE113      0.2287
     53  O         47.3600   16.7690   24.6860 O.2   113  ILE113     -0.2864
     54  CB        49.0450   16.0570   27.4620 C.3   113  ILE113      0.0276
     55  CG1       50.4130   16.3990   28.0610 C.3   113  ILE113      0.0022
     56  CG2       49.1370   14.8590   26.4910 C.3   113  ILE113      0.0022
     57  CD1       51.1560   15.2180   28.6380 C.3   113  ILE113      0.0001
     58  N         46.3730   19.7770   23.5580 N.3   116  GLY116     -0.1210
     59  CA        47.4700   19.9670   22.6240 C.3   116  GLY116      0.1956
     60  C         47.5390   18.8240   21.6320 C.2   116  GLY116      0.2612
     61  O         47.7230   19.0100   20.4230 O.2   116  GLY116     -0.2717
     62  N         47.3830   17.6220   22.1620 N.am  117  THR117     -0.1952
     63  CA        47.4020   16.4260   21.3460 C.3   117  THR117      0.1897
     64  C         46.1960   16.4360   20.4070 C.2   117  THR117      0.2313
     65  O         46.2750   15.9780   19.2630 O.2   117  THR117     -0.2863
     66  CB        47.3890   15.1720   22.2460 C.3   117  THR117      0.1794
     67  OG1       48.7320   14.7000   22.4120 O.3   117  THR117     -0.2208
     68  CG2       46.5360   14.0770   21.6520 C.3   117  THR117      0.0378
     69  N         44.7580   19.0620   19.1660 N.3   119  LEU119     -0.1231
     70  CA        44.9860   20.0550   18.1200 C.3   119  LEU119      0.1693
     71  C         45.8880   19.4770   17.0330 C.2   119  LEU119      0.2591
     72  O         45.7360   19.7770   15.8480 O.2   119  LEU119     -0.2718
     73  CB        45.6150   21.3190   18.7000 C.3   119  LEU119      0.0284
     74  CG        45.8300   22.4660   17.7040 C.3   119  LEU119      0.0019
     75  CD1       44.5470   22.7460   16.9040 C.3   119  LEU119      0.0001
     76  CD2       46.3080   23.7250   18.4360 C.3   119  LEU119      0.0001
     77  N         46.8590   18.6830   17.4510 N.am  120  VAL120     -0.1980
     78  CA        47.7490   18.0580   16.5040 C.3   120  VAL120      0.1595
     79  C         46.9090   17.1230   15.6420 C.2   120  VAL120      0.2287
     80  O         46.9500   17.1850   14.4150 O.2   120  VAL120     -0.2864
     81  CB        48.8510   17.2650   17.2300 C.3   120  VAL120      0.0276
     82  CG1       49.6670   16.4360   16.2360 C.3   120  VAL120      0.0022
     83  CG2       49.7410   18.2220   17.9990 C.3   120  VAL120      0.0022
     84  N         44.8970   18.7430   13.0470 N.3   123  LEU123     -0.1245
     85  CA        45.6260   19.4090   11.9760 C.3   123  LEU123      0.1561
     86  C         46.5020   18.4580   11.1770 C.2   123  LEU123      0.2260
     87  O         47.0560   18.8330   10.1490 O.2   123  LEU123     -0.2867
     88  CB        46.4690   20.5560   12.5470 C.3   123  LEU123      0.0270
     89  CG        45.7280   21.6100   13.3810 C.3   123  LEU123      0.0019
     90  CD1       46.7370   22.5830   13.9620 C.3   123  LEU123      0.0001
     91  CD2       44.7050   22.3470   12.5270 C.3   123  LEU123      0.0001
@<TRIPOS>BOND
     1    87    86    2
     2    86    85    1
     3    85    88    1
     4    85    84    1
     5    91    89    1
     6    88    89    1
     7    89    90    1
     8    80    79    2
     9    79    78    1
    10    72    71    2
    11    82    81    1
    12    78    81    1
    13    78    77    1
    14    75    74    1
    15    71    77   am
    16    71    70    1
    17    81    83    1
    18    74    76    1
    19    74    73    1
    20    70    73    1
    21    70    69    1
    22    65    64    2
    23    64    63    1
    24    61    60    2
    25    63    62    1
    26    63    66    1
    27    60    62   am
    28    60    59    1
    29    68    66    1
    30    66    67    1
    31    59    58    1
    32     8     6    1
    33    53    52    2
    34     7     6    1
    35     5     6    1
    36     5     2    1
    37    18    19   ar
    38    18    16   ar
    39     1     2    1
    40    52    51    1
    41    49    48    2
    42    19    17   ar
    43     2     3    1
    44    16    14   ar
    45    56    54    1
    46    51    54    1
    47    51    50    1
    48    48    50   am
    49    48    47    1
    50    54    55    1
    51     3     9   am
    52     3     4    2
    53    17    15   ar
    54     9    10    1
    55    14    15   ar
    56    14    13    1
    57    55    57    1
    58    47    46    1
    59    13    10    1
    60    10    11    1
    61    11    12    2
    62    45    44    2
    63    26    25    1
    64    26    20    1
    65    25    24    1
    66    44    43    1
    67    20    21    1
    68    38    37    2
    69    24    21    1
    70    43    42    1
    71    21    22    1
    72    37    42   am
    73    37    36    1
    74    22    23    2
    75    40    39    1
    76    36    39    1
    77    36    35    1
    78    39    41    1
    79    30    29    2
    80    33    32    1
    81    29    28    1
    82    32    34    1
    83    32    31    1
    84    28    31    1
    85    28    27    1
