@<TRIPOS>MOLECULE
tmp/1x0nA00.pdb
 116 114 0 0 0
SMALL
GASTEIGER

@<TRIPOS>ATOM
      1  N         -0.0880   -9.2870   -9.3040 N.3     6  ILE6       -0.1245
      2  CA        -0.4270   -8.3020  -10.3240 C.3     6  ILE6        0.1561
      3  C          0.6620   -8.2150  -11.3880 C.2     6  ILE6        0.2260
      4  O          1.8560   -8.1850  -11.0880 O.2     6  ILE6       -0.2867
      5  CB        -0.6400   -6.9060   -9.7090 C.3     6  ILE6        0.0252
      6  CG1        0.6220   -6.4500   -8.9750 C.3     6  ILE6        0.0019
      7  CG2       -1.8330   -6.9200   -8.7650 C.3     6  ILE6        0.0019
      8  CD1        1.1920   -5.1510   -9.5020 C.3     6  ILE6        0.0001
      9  N          3.1090   -6.7380  -14.3350 N.3     8  ARG8       -0.1245
     10  CA         3.8830   -5.5080  -14.4600 C.3     8  ARG8        0.1563
     11  C          3.0290   -4.3850  -15.0400 C.2     8  ARG8        0.2260
     12  O          3.2010   -3.2180  -14.6900 O.2     8  ARG8       -0.2867
     13  CB         5.1090   -5.7400  -15.3440 C.3     8  ARG8        0.0307
     14  CG         4.7660   -6.1650  -16.7630 C.3     8  ARG8        0.0489
     15  CD         6.0020   -6.2100  -17.6460 C.3     8  ARG8        0.2205
     16  NE         7.1720   -6.7080  -16.9260 N.pl3   8  ARG8       -0.0865
     17  CZ         8.4230   -6.4490  -17.2880 C.cat   8  ARG8        0.5346
     18  NH1        8.6660   -5.7010  -18.3560 N.pl3   8  ARG8        0.1354
     19  NH2        9.4340   -6.9370  -16.5820 N.pl3   8  ARG8        0.1354
     20  N          5.1200   -5.8340   -5.6630 N.3    27  ARG27      -0.1245
     21  CA         4.2130   -6.9210   -6.0110 C.3    27  ARG27       0.1563
     22  C          4.8300   -8.2740   -5.6700 C.2    27  ARG27       0.2260
     23  O          6.0480   -8.4390   -5.7130 O.2    27  ARG27      -0.2867
     24  CB         3.8670   -6.8670   -7.5000 C.3    27  ARG27       0.0307
     25  CG         5.0760   -6.6770   -8.4010 C.3    27  ARG27       0.0489
     26  CD         5.1540   -5.2560   -8.9360 C.3    27  ARG27       0.2205
     27  NE         6.4450   -4.9760   -9.5600 N.pl3  27  ARG27      -0.0865
     28  CZ         6.8320   -5.5040  -10.7150 C.cat  27  ARG27       0.5346
     29  NH1        6.0330   -6.3360  -11.3690 N.pl3  27  ARG27       0.1354
     30  NH2        8.0220   -5.2010  -11.2190 N.pl3  27  ARG27       0.1354
     31  N          9.0900   -7.6900   -5.6200 N.3    37  SER37      -0.1217
     32  CA         9.5680   -6.8440   -6.7080 C.3    37  SER37       0.1889
     33  C          9.0010   -5.4330   -6.5880 C.2    37  SER37       0.2288
     34  O          7.7850   -5.2380   -6.5840 O.2    37  SER37      -0.2866
     35  CB         9.1820   -7.4480   -8.0590 C.3    37  SER37       0.2089
     36  OG         7.8950   -8.0400   -8.0050 O.3    37  SER37      -0.2183
     37  N         10.1340    1.9680  -14.0060 N.3    47  GLN47      -0.1231
     38  CA        11.2700    1.1250  -13.6510 C.3    47  GLN47       0.1698
     39  C         10.9210    0.2030  -12.4880 C.2    47  GLN47       0.2592
     40  O          9.8450    0.3100  -11.8980 O.2    47  GLN47      -0.2718
     41  CB        12.4790    1.9890  -13.2870 C.3    47  GLN47       0.0381
     42  CG        12.9280    2.9110  -14.4100 C.3    47  GLN47       0.0905
     43  CD        14.4160    3.1980  -14.3680 C.2    47  GLN47       0.2608
     44  OE1       15.0220    3.5430  -15.3830 O.2    47  GLN47      -0.2717
     45  NE2       15.0140    3.0580  -13.1910 N.am   47  GLN47      -0.0878
     46  N         11.8370   -0.7040  -12.1630 N.am   48  HIS48      -0.1962
     47  CA        11.6250   -1.6460  -11.0700 C.3    48  HIS48       0.1787
     48  C         12.9560   -2.1830  -10.5500 C.2    48  HIS48       0.2620
     49  O         13.9890   -2.0490  -11.2060 O.2    48  HIS48      -0.2715
     50  CB        10.7400   -2.8040  -11.5300 C.3    48  HIS48       0.0785
     51  CG        11.1780   -3.4160  -12.8250 C.ar   48  HIS48       0.0821
     52  ND1       10.3690   -3.4800  -13.9390 N.ar   48  HIS48      -0.2267
     53  CD2       12.3510   -3.9920  -13.1800 C.ar   48  HIS48       0.1154
     54  CE1       11.0240   -4.0700  -14.9230 C.ar   48  HIS48       0.1986
     55  NE2       12.2300   -4.3900  -14.4880 N.ar   48  HIS48      -0.2212
     56  N         12.9230   -2.7900   -9.3690 N.am   49  PHE49      -0.1960
     57  CA        14.1260   -3.3460   -8.7610 C.3    49  PHE49       0.1771
     58  C         13.8130   -4.6450   -8.0240 C.2    49  PHE49       0.2619
     59  O         13.0870   -4.6500   -7.0300 O.2    49  PHE49      -0.2715
     60  CB        14.7480   -2.3350   -7.7940 C.3    49  PHE49       0.0574
     61  CG        15.0900   -1.0220   -8.4370 C.ar   49  PHE49      -0.0200
     62  CD1       14.1210   -0.0460   -8.6090 C.ar   49  PHE49      -0.0042
     63  CD2       16.3800   -0.7640   -8.8720 C.ar   49  PHE49      -0.0042
     64  CE1       14.4330    1.1640   -9.2000 C.ar   49  PHE49      -0.0003
     65  CE2       16.6980    0.4440   -9.4640 C.ar   49  PHE49      -0.0003
     66  CZ        15.7230    1.4090   -9.6290 C.ar   49  PHE49      -0.0000
     67  N         14.3670   -5.7470   -8.5200 N.am   50  LYS50      -0.1977
     68  CA        14.1490   -7.0530   -7.9110 C.3    50  LYS50       0.1596
     69  C         14.6950   -7.0880   -6.4870 C.2    50  LYS50       0.2287
     70  O         15.8780   -6.8370   -6.2590 O.2    50  LYS50      -0.2864
     71  CB        14.8140   -8.1470   -8.7500 C.3    50  LYS50       0.0298
     72  CG        13.8260   -9.0170   -9.5090 C.3    50  LYS50       0.0038
     73  CD        14.0660  -10.4940   -9.2450 C.3    50  LYS50       0.0206
     74  CE        13.7140  -10.8680   -7.8130 C.3    50  LYS50       0.1093
     75  NZ        12.5580  -11.8050   -7.7530 N.3    50  LYS50      -0.1314
     76  N         15.8340   -8.9400   -3.0750 N.3    52  LEU52      -0.1245
     77  CA        16.4010  -10.2190   -2.6620 C.3    52  LEU52       0.1561
     78  C         16.2790  -10.4060   -1.1530 C.2    52  LEU52       0.2260
     79  O         15.7670   -9.5360   -0.4490 O.2    52  LEU52      -0.2867
     80  CB        17.8690  -10.3080   -3.0820 C.3    52  LEU52       0.0270
     81  CG        18.1420  -10.2500   -4.5850 C.3    52  LEU52       0.0019
     82  CD1       17.1870  -11.1660   -5.3360 C.3    52  LEU52       0.0001
     83  CD2       18.0250   -8.8210   -5.0940 C.3    52  LEU52       0.0001
     84  N         17.0650   -7.0550    0.8610 N.3    60  PHE60      -0.1227
     85  CA        18.0630   -6.0450    0.5280 C.3    60  PHE60       0.1736
     86  C         18.1110   -5.8040   -0.9780 C.2    60  PHE60       0.2595
     87  O         17.4150   -6.4680   -1.7470 O.2    60  PHE60      -0.2718
     88  CB        19.4420   -6.4760    1.0320 C.3    60  PHE60       0.0547
     89  CG        19.6660   -7.9600    0.9740 C.ar   60  PHE60      -0.0202
     90  CD1       19.3510   -8.6770   -0.1690 C.ar   60  PHE60      -0.0042
     91  CD2       20.1890   -8.6380    2.0630 C.ar   60  PHE60      -0.0042
     92  CE1       19.5560  -10.0430   -0.2260 C.ar   60  PHE60      -0.0003
     93  CE2       20.3960  -10.0040    2.0110 C.ar   60  PHE60      -0.0003
     94  CZ        20.0780  -10.7070    0.8660 C.ar   60  PHE60      -0.0000
     95  N         18.9380   -4.8500   -1.3910 N.am   61  LEU61      -0.1966
     96  CA        19.0780   -4.5190   -2.8050 C.3    61  LEU61       0.1728
     97  C         20.5390   -4.5860   -3.2380 C.2    61  LEU61       0.2616
     98  O         20.9400   -5.4940   -3.9660 O.2    61  LEU61      -0.2715
     99  CB        18.5150   -3.1240   -3.0810 C.3    61  LEU61       0.0311
    100  CG        16.9990   -3.0340   -3.2590 C.3    61  LEU61       0.0022
    101  CD1       16.3110   -2.8950   -1.9100 C.3    61  LEU61       0.0001
    102  CD2       16.6370   -1.8680   -4.1680 C.3    61  LEU61       0.0001
    103  N         21.3290   -3.6210   -2.7830 N.am   62  TRP62      -0.1974
    104  CA        22.7470   -3.5710   -3.1210 C.3    62  TRP62       0.1640
    105  C         23.6100   -3.8500   -1.8950 C.2    62  TRP62       0.2290
    106  O         24.2780   -4.8810   -1.8160 O.2    62  TRP62      -0.2864
    107  CB        23.1040   -2.2060   -3.7120 C.3    62  TRP62       0.0576
    108  CG        22.0680   -1.6780   -4.6570 C.ar   62  TRP62       0.0006
    109  CD1       20.9610   -0.9470   -4.3350 C.ar   62  TRP62       0.0946
    110  CD2       22.0430   -1.8430   -6.0790 C.ar   62  TRP62       0.0152
    111  NE1       20.2490   -0.6470   -5.4710 N.ar   62  TRP62      -0.2442
    112  CE2       20.8910   -1.1850   -6.5540 C.ar   62  TRP62       0.0810
    113  CE3       22.8810   -2.4810   -6.9980 C.ar   62  TRP62       0.0012
    114  CZ2       20.5590   -1.1480   -7.9060 C.ar   62  TRP62       0.0191
    115  CZ3       22.5500   -2.4440   -8.3390 C.ar   62  TRP62       0.0001
    116  CH2       21.3980   -1.7810   -8.7830 C.ar   62  TRP62       0.0015
@<TRIPOS>BOND
     1    18    17    1
     2    15    16    1
     3    15    14    1
     4    17    16    2
     5    17    19    1
     6    14    13    1
     7    44    43    2
     8    13    10    1
     9    11    12    2
    10    11    10    1
    11    54    55   ar
    12    54    52   ar
    13    55    53   ar
    14    10     9    1
    15    42    43    1
    16    42    41    1
    17    43    45   am
    18    37    38    1
    19    52    51   ar
    20    38    41    1
    21    38    39    1
    22    53    51   ar
    23    51    50    1
    24    39    46   am
    25    39    40    2
    26    46    47    1
    27    50    47    1
    28     3     4    2
    29     3     2    1
    30    29    28    1
    31    30    28    1
    32    49    48    2
    33    47    48    1
    34    28    27    2
    35    48    56   am
    36     2     5    1
    37     2     1    1
    38     5     6    1
    39     5     7    1
    40    66    65   ar
    41    66    64   ar
    42    27    26    1
    43    72    73    1
    44    72    71    1
    45     8     6    1
    46    65    63   ar
    47    56    57    1
    48    73    74    1
    49    64    62   ar
    50    26    25    1
    51    63    61   ar
    52   116   115   ar
    53   116   114   ar
    54    57    58    1
    55    57    60    1
    56    71    68    1
    57    62    61   ar
    58    67    58   am
    59    67    68    1
    60    61    60    1
    61    25    24    1
    62   115   113   ar
    63    35    36    1
    64    35    32    1
    65    58    59    2
    66    68    69    1
    67   114   112   ar
    68    74    75    1
    69    24    21    1
    70   113   110   ar
    71    32    33    1
    72    32    31    1
    73    33    34    2
    74   112   110   ar
    75   112   111   ar
    76    69    70    2
    77   110   108   ar
    78    21    22    1
    79    21    20    1
    80    23    22    2
    81   111   109   ar
    82    82    81    1
    83    83    81    1
    84   108   109   ar
    85   108   107    1
    86    81    80    1
    87   102   100    1
    88    98    97    2
    89   107   104    1
    90   100    99    1
    91   100   101    1
    92    97    96    1
    93    97   103   am
    94   104   103    1
    95   104   105    1
    96    80    77    1
    97    99    96    1
    98    76    77    1
    99    96    95    1
   100    77    78    1
   101   105   106    2
   102    87    86    2
   103    95    86   am
   104    78    79    2
   105    86    85    1
   106    92    90   ar
   107    92    94   ar
   108    90    89   ar
   109    85    84    1
   110    85    88    1
   111    94    93   ar
   112    89    88    1
   113    89    91   ar
   114    93    91   ar
