@<TRIPOS>MOLECULE
tmp/1x0pF00.pdb
 161 150 0 0 0
SMALL
GASTEIGER

@<TRIPOS>ATOM
      1  N         56.3130   45.7780  131.0610 N.3     7  TYR7       -0.1241
      2  CA        56.7750   46.4860  132.2490 C.3     7  TYR7        0.1605
      3  C         57.7130   45.5470  133.0080 C.2     7  TYR7        0.2264
      4  O         57.7210   44.3390  132.7720 O.2     7  TYR7       -0.2867
      5  CB        55.5820   46.8890  133.1280 C.3     7  TYR7        0.0534
      6  CG        55.0720   45.7780  134.0110 C.ar    7  TYR7       -0.0201
      7  CD1       55.7110   45.4710  135.2170 C.ar    7  TYR7       -0.0009
      8  CD2       53.9950   44.9820  133.6140 C.ar    7  TYR7       -0.0009
      9  CE1       55.2970   44.3920  136.0020 C.ar    7  TYR7        0.0417
     10  CE2       53.5730   43.8970  134.3940 C.ar    7  TYR7        0.0417
     11  CZ        54.2320   43.6120  135.5810 C.ar    7  TYR7        0.1957
     12  OH        53.8440   42.5380  136.3360 O.3     7  TYR7       -0.2866
     13  N         50.8020   33.3280  141.6580 N.3    23  ILE23      -0.1245
     14  CA        50.6710   34.4320  140.7190 C.3    23  ILE23       0.1561
     15  C         50.2070   33.8770  139.3760 C.2    23  ILE23       0.2260
     16  O         49.2140   34.3370  138.8180 O.2    23  ILE23      -0.2867
     17  CB        52.0110   35.1740  140.5430 C.3    23  ILE23       0.0252
     18  CG1       52.3980   35.8390  141.8680 C.3    23  ILE23       0.0019
     19  CG2       51.8980   36.2210  139.4310 C.3    23  ILE23       0.0019
     20  CD1       53.8150   36.3760  141.9070 C.3    23  ILE23       0.0001
     21  N         46.4230   32.4800  139.4230 N.3    26  LYS26      -0.1231
     22  CA        45.4300   33.5390  139.5030 C.3    26  LYS26       0.1693
     23  C         45.4330   34.3510  138.2080 C.2    26  LYS26       0.2592
     24  O         44.3770   34.7200  137.7000 O.2    26  LYS26      -0.2718
     25  CB        45.7280   34.4430  140.7050 C.3    26  LYS26       0.0285
     26  CG        45.6770   33.7000  142.0420 C.3    26  LYS26       0.0035
     27  CD        44.2640   33.2060  142.3440 C.3    26  LYS26       0.0206
     28  CE        44.2620   32.1890  143.4780 C.3    26  LYS26       0.1093
     29  NZ        45.0920   32.6440  144.6380 N.3    26  LYS26      -0.1314
     30  N         46.6230   34.6170  137.6750 N.am   27  SER27      -0.1952
     31  CA        46.7570   35.3940  136.4440 C.3    27  SER27       0.1924
     32  C         46.1040   34.7210  135.2450 C.2    27  SER27       0.2314
     33  O         45.4460   35.3870  134.4410 O.2    27  SER27      -0.2863
     34  CB        48.2320   35.6570  136.1420 C.3    27  SER27       0.2116
     35  OG        48.8050   36.4790  137.1520 O.3    27  SER27      -0.2180
     36  N         42.2030   35.1550  135.5750 N.3    30  ASN30      -0.1225
     37  CA        41.7690   36.5120  135.2530 C.3    30  ASN30       0.1785
     38  C         42.0100   36.8740  133.7930 C.2    30  ASN30       0.2597
     39  O         41.1290   37.4340  133.1370 O.2    30  ASN30      -0.2718
     40  CB        42.4860   37.5290  136.1420 C.3    30  ASN30       0.1169
     41  CG        42.2490   37.2730  137.6120 C.2    30  ASN30       0.2627
     42  OD1       41.1720   36.8220  138.0040 O.2    30  ASN30      -0.2716
     43  ND2       43.2440   37.5720  138.4370 N.am   30  ASN30      -0.0877
     44  N         43.2060   36.5670  133.2990 N.am   31  ASN31      -0.1974
     45  CA        43.5570   36.8810  131.9170 C.3    31  ASN31       0.1688
     46  C         42.6370   36.1590  130.9380 C.2    31  ASN31       0.2292
     47  O         42.1850   36.7500  129.9570 O.2    31  ASN31      -0.2864
     48  CB        45.0220   36.5290  131.6450 C.3    31  ASN31       0.1181
     49  CG        45.9920   37.5200  132.2790 C.2    31  ASN31       0.2629
     50  OD1       45.5910   38.4710  132.9530 O.2    31  ASN31      -0.2716
     51  ND2       47.2740   37.2970  132.0610 N.am   31  ASN31      -0.0877
     52  N         39.6500   35.2510  131.4650 N.3    33  ARG33      -0.1245
     53  CA        38.3870   35.9760  131.6000 C.3    33  ARG33       0.1563
     54  C         38.3590   37.3050  130.8300 C.2    33  ARG33       0.2260
     55  O         37.3360   37.6730  130.2550 O.2    33  ARG33      -0.2867
     56  CB        38.1180   36.2730  133.0870 C.3    33  ARG33       0.0307
     57  CG        36.9020   37.1690  133.3570 C.3    33  ARG33       0.0489
     58  CD        36.9660   37.7860  134.7660 C.3    33  ARG33       0.2205
     59  NE        38.1320   38.6590  134.9060 N.pl3  33  ARG33      -0.0865
     60  CZ        38.6020   39.1300  136.0590 C.cat  33  ARG33       0.5346
     61  NH1       38.0050   38.8210  137.2020 N.pl3  33  ARG33       0.1354
     62  NH2       39.6850   39.9020  136.0690 N.pl3  33  ARG33       0.1354
     63  N         55.3520   35.8600  131.7980 N.3    40  LEU40      -0.1245
     64  CA        56.0260   36.4890  132.9200 C.3    40  LEU40       0.1561
     65  C         57.4140   35.8750  133.0240 C.2    40  LEU40       0.2260
     66  O         57.5580   34.6820  133.2770 O.2    40  LEU40      -0.2867
     67  CB        55.2310   36.2400  134.2070 C.3    40  LEU40       0.0270
     68  CG        55.6420   36.9650  135.4920 C.3    40  LEU40       0.0019
     69  CD1       54.6380   36.6740  136.6090 C.3    40  LEU40       0.0001
     70  CD2       57.0130   36.5130  135.9000 C.3    40  LEU40       0.0001
     71  N         61.3880   40.9890  137.5320 N.3    47  PHE47      -0.1241
     72  CA        60.2240   40.5560  136.7710 C.3    47  PHE47       0.1605
     73  C         60.1450   41.3560  135.4710 C.2    47  PHE47       0.2264
     74  O         60.3630   42.5660  135.4740 O.2    47  PHE47      -0.2867
     75  CB        58.9380   40.7980  137.5630 C.3    47  PHE47       0.0534
     76  CG        58.6170   39.7130  138.5400 C.ar   47  PHE47      -0.0203
     77  CD1       58.3350   40.0080  139.8680 C.ar   47  PHE47      -0.0042
     78  CD2       58.5950   38.3850  138.1290 C.ar   47  PHE47      -0.0042
     79  CE1       58.0370   38.9850  140.7680 C.ar   47  PHE47      -0.0003
     80  CE2       58.3000   37.3640  139.0190 C.ar   47  PHE47      -0.0003
     81  CZ        58.0210   37.6600  140.3370 C.ar   47  PHE47      -0.0000
     82  N         57.3520   41.3630  132.3910 N.3    49  GLN49      -0.1245
     83  CA        56.1000   40.7880  131.9090 C.3    49  GLN49       0.1566
     84  C         55.4820   41.5030  130.7240 C.2    49  GLN49       0.2260
     85  O         55.6220   42.7130  130.5650 O.2    49  GLN49      -0.2867
     86  CB        55.0670   40.7590  133.0470 C.3    49  GLN49       0.0367
     87  CG        53.6630   40.2910  132.6310 C.3    49  GLN49       0.0905
     88  CD        52.7500   39.9730  133.8120 C.2    49  GLN49       0.2608
     89  OE1       52.6230   40.7620  134.7470 O.2    49  GLN49      -0.2717
     90  NE2       52.0960   38.8180  133.7610 N.am   49  GLN49      -0.0878
     91  N         51.7690   41.7600  128.5220 N.3    51  LEU51      -0.1245
     92  CA        50.3560   41.4510  128.4810 C.3    51  LEU51       0.1561
     93  C         49.8220   42.0120  127.1770 C.2    51  LEU51       0.2260
     94  O         50.1660   43.1310  126.7850 O.2    51  LEU51      -0.2867
     95  CB        49.6190   42.1210  129.6320 C.3    51  LEU51       0.0270
     96  CG        49.9470   41.6500  131.0570 C.3    51  LEU51       0.0019
     97  CD1       48.9960   42.3400  132.0300 C.3    51  LEU51       0.0001
     98  CD2       49.7820   40.1360  131.1580 C.3    51  LEU51       0.0001
     99  N         44.2820   45.5250  134.5830 N.3    61  THR61      -0.1218
    100  CA        45.0800   44.4250  135.1020 C.3    61  THR61       0.1862
    101  C         46.3700   44.9820  135.6950 C.2    61  THR61       0.2287
    102  O         46.7810   44.5860  136.7910 O.2    61  THR61      -0.2866
    103  CB        45.4020   43.3820  133.9980 C.3    61  THR61       0.1770
    104  OG1       44.1940   42.7060  133.6280 O.3    61  THR61      -0.2211
    105  CG2       46.4060   42.3590  134.4880 C.3    61  THR61       0.0375
    106  N         45.8660   46.5530  139.1130 N.3    64  ARG64      -0.1231
    107  CA        45.7930   45.5080  140.1160 C.3    64  ARG64       0.1694
    108  C         47.1910   45.0010  140.4460 C.2    64  ARG64       0.2591
    109  O         47.5560   44.8530  141.6150 O.2    64  ARG64      -0.2718
    110  CB        44.9250   44.3670  139.5890 C.3    64  ARG64       0.0321
    111  CG        43.6130   44.2210  140.3230 C.3    64  ARG64       0.0489
    112  CD        42.5860   43.4370  139.5210 C.3    64  ARG64       0.2205
    113  NE        43.1630   42.3890  138.6800 N.pl3  64  ARG64      -0.0865
    114  CZ        42.8030   42.2010  137.4140 C.cat  64  ARG64       0.5346
    115  NH1       41.8850   42.9950  136.8780 N.pl3  64  ARG64       0.1354
    116  NH2       43.3390   41.2240  136.6900 N.pl3  64  ARG64       0.1354
    117  N         47.9790   44.7490  139.4070 N.am   65  ILE65      -0.1980
    118  CA        49.3410   44.2560  139.5730 C.3    65  ILE65       0.1595
    119  C         50.1760   45.1800  140.4450 C.2    65  ILE65       0.2287
    120  O         51.0090   44.7180  141.2290 O.2    65  ILE65      -0.2864
    121  CB        50.0320   44.0870  138.1990 C.3    65  ILE65       0.0276
    122  CG1       49.4110   42.9020  137.4620 C.3    65  ILE65       0.0022
    123  CG2       51.5390   43.9000  138.3660 C.3    65  ILE65       0.0022
    124  CD1       49.9270   42.7400  136.0260 C.3    65  ILE65       0.0001
    125  N         50.0460   44.5280  144.1940 N.3    68  ASP68      -0.1239
    126  CA        50.6400   43.2930  144.7110 C.3    68  ASP68       0.1674
    127  C         51.9480   43.5320  145.4570 C.2    68  ASP68       0.2266
    128  O         52.9410   43.9260  144.8640 O.2    68  ASP68      -0.2867
    129  CB        50.8820   42.3130  143.5610 C.3    68  ASP68       0.1410
    130  CG        50.9800   40.8790  144.0320 C.2    68  ASP68       0.3668
    131  OD1       51.8450   40.5850  144.8840 O.co2  68  ASP68      -0.2456
    132  OD2       50.1810   40.0490  143.5510 O.co2  68  ASP68      -0.2456
    133  N         54.0520   41.5120  146.4360 N.3    70  ARG70      -0.1231
    134  CA        55.0800   40.5440  146.0790 C.3    70  ARG70       0.1694
    135  C         56.1740   41.1100  145.1720 C.2    70  ARG70       0.2592
    136  O         57.1430   40.4230  144.8560 O.2    70  ARG70      -0.2718
    137  CB        54.4330   39.2990  145.4650 C.3    70  ARG70       0.0321
    138  CG        53.7700   38.4080  146.5230 C.3    70  ARG70       0.0489
    139  CD        52.9450   37.2750  145.9310 C.3    70  ARG70       0.2205
    140  NE        51.7140   37.7560  145.3120 N.pl3  70  ARG70      -0.0865
    141  CZ        50.6740   36.9810  145.0270 C.cat  70  ARG70       0.5346
    142  NH1       50.7130   35.6830  145.3070 N.pl3  70  ARG70       0.1354
    143  NH2       49.5920   37.5020  144.4680 N.pl3  70  ARG70       0.1354
    144  N         56.0130   42.3540  144.7330 N.am   71  HIS71      -0.1976
    145  CA        57.0490   43.0020  143.9300 C.3    71  HIS71       0.1656
    146  C         56.9800   44.4970  144.1700 C.2    71  HIS71       0.2291
    147  O         56.0560   44.9790  144.8190 O.2    71  HIS71      -0.2864
    148  CB        56.9160   42.6930  142.4280 C.3    71  HIS71       0.0771
    149  CG        55.6850   43.2540  141.7880 C.ar   71  HIS71       0.0820
    150  ND1       55.5760   43.4290  140.4240 N.ar   71  HIS71      -0.2267
    151  CD2       54.4920   43.6190  142.3100 C.ar   71  HIS71       0.1154
    152  CE1       54.3660   43.8730  140.1360 C.ar   71  HIS71       0.1986
    153  NE2       53.6870   43.9960  141.2620 N.ar   71  HIS71      -0.2212
    154  N         48.7870   33.3750  130.6600 N.3    92  MET92      -0.1245
    155  CA        49.8300   33.9820  131.4720 C.3    92  MET92       0.1570
    156  C         50.7140   32.8720  131.9910 C.2    92  MET92       0.2261
    157  O         50.4260   32.2830  133.0310 O.2    92  MET92      -0.2867
    158  CB        49.2280   34.7320  132.6610 C.3    92  MET92       0.0387
    159  CG        49.9630   36.0150  133.0040 C.3    92  MET92       0.0595
    160  SD        51.7410   35.8530  132.8560 S.3    92  MET92      -0.1393
    161  CE        52.0930   34.8890  134.3380 C.3    92  MET92       0.0692
@<TRIPOS>BOND
     1    94    93    2
     2    93    92    1
     3    92    91    1
     4    92    95    1
     5    95    96    1
     6    47    46    2
     7    55    54    2
     8    85    84    2
     9   154   155    1
    10    84    83    1
    11    54    53    1
    12    46    45    1
    13    96    98    1
    14    96    97    1
    15     1     2    1
    16    52    53    1
    17   155   156    1
    18   155   158    1
    19    53    56    1
    20    48    45    1
    21    48    49    1
    22    63    64    1
    23    83    82    1
    24    83    86    1
    25    45    44    1
    26   156   157    2
    27    51    49   am
    28     2     3    1
    29     2     5    1
    30    49    50    2
    31    87    86    1
    32    87    88    1
    33   158   159    1
    34     4     3    2
    35   160   159    1
    36   160   161    1
    37    64    65    1
    38    64    67    1
    39    65    66    2
    40    56    57    1
    41     5     6    1
    42    39    38    2
    43    44    38   am
    44    57    58    1
    45     8     6   ar
    46     8    10   ar
    47   104   103    1
    48    90    88   am
    49    38    37    1
    50    88    89    2
    51   103   105    1
    52   103   100    1
    53     6     7   ar
    54    67    68    1
    55    10    11   ar
    56    33    32    2
    57    99   100    1
    58    58    59    1
    59    59    60    2
    60   100   101    1
    61     7     9   ar
    62    32    31    1
    63    37    36    1
    64    37    40    1
    65    73    74    2
    66    73    72    1
    67    68    70    1
    68    68    69    1
    69    11     9   ar
    70    11    12    1
    71   101   102    2
    72   124   122    1
    73    60    62    1
    74    60    61    1
    75    40    41    1
    76    34    31    1
    77    34    35    1
    78    31    30    1
    79   116   114    1
    80    72    71    1
    81    72    75    1
    82   115   114    1
    83   114   113    2
    84   122   121    1
    85    75    76    1
    86    41    42    2
    87    41    43   am
    88    30    23   am
    89    24    23    2
    90    78    76   ar
    91    78    80   ar
    92   121   123    1
    93   121   118    1
    94    23    22    1
    95    76    77   ar
    96   113   112    1
    97    16    15    2
    98    80    81   ar
    99   106   107    1
   100    15    14    1
   101   117   118    1
   102   117   108   am
   103    21    22    1
   104    19    17    1
   105    22    25    1
   106   112   111    1
   107   118   119    1
   108   110   107    1
   109   110   111    1
   110    77    79   ar
   111   107   108    1
   112   152   150   ar
   113   152   153   ar
   114    81    79   ar
   115   150   149   ar
   116   119   120    2
   117   108   109    2
   118    17    14    1
   119    17    18    1
   120    25    26    1
   121    14    13    1
   122   153   151   ar
   123   149   151   ar
   124   149   148    1
   125    18    20    1
   126    26    27    1
   127    27    28    1
   128   148   145    1
   129    28    29    1
   130   132   130   ar
   131   129   130    1
   132   129   126    1
   133   145   146    1
   134   145   144    1
   135   130   131   ar
   136   146   147    2
   137   125   126    1
   138   143   141    1
   139   126   127    1
   140   144   135   am
   141   136   135    2
   142   128   127    2
   143   141   142    1
   144   141   140    2
   145   135   134    1
   146   140   139    1
   147   137   134    1
   148   137   138    1
   149   139   138    1
   150   134   133    1
