@<TRIPOS>MOLECULE
tmp/1x0xA00.pdb
 242 236 0 0 0
SMALL
GASTEIGER

@<TRIPOS>ATOM
      1  N        -67.7220   34.7860 -107.0340 N.3    12  SER12      -0.1202
      2  CA       -68.8640   33.8910 -107.0790 C.3    12  SER12       0.2020
      3  C        -69.8290   34.1380 -108.2400 C.2    12  SER12       0.2619
      4  O        -70.9880   33.7160 -108.1810 O.2    12  SER12      -0.2717
      5  CB       -69.6250   34.0600 -105.7850 C.3    12  SER12       0.2103
      6  OG       -69.8730   35.4430 -105.5870 O.3    12  SER12      -0.2182
      7  N        -69.3550   34.8080 -109.2860 N.am   13  GLY13      -0.1942
      8  CA       -70.2020   35.0860 -110.4250 C.3    13  GLY13       0.2014
      9  C        -70.4430   33.8890 -111.3140 C.2    13  GLY13       0.2639
     10  O        -70.3750   32.7420 -110.8680 O.2    13  GLY13      -0.2714
     11  N        -70.7440   34.1620 -112.5790 N.am   14  ASN14      -0.1958
     12  CA       -71.0000   33.1260 -113.5600 C.3    14  ASN14       0.1819
     13  C        -69.8300   32.0970 -113.5670 C.2    14  ASN14       0.2621
     14  O        -70.0150   30.9310 -113.2160 O.2    14  ASN14      -0.2715
     15  CB       -71.1900   33.8090 -114.9210 C.3    14  ASN14       0.1195
     16  CG       -71.7390   32.8790 -115.9950 C.2    14  ASN14       0.2630
     17  OD1      -71.2500   32.8790 -117.1210 O.2    14  ASN14      -0.2716
     18  ND2      -72.7620   32.0960 -115.6560 N.am   14  ASN14      -0.0877
     19  N        -68.6290   32.5210 -113.9530 N.am   15  TRP15      -0.1960
     20  CA       -67.4720   31.6170 -113.9640 C.3    15  TRP15       0.1771
     21  C        -67.1200   31.1630 -112.5450 C.2    15  TRP15       0.2620
     22  O        -66.8110   29.9920 -112.3180 O.2    15  TRP15      -0.2715
     23  CB       -66.2530   32.3260 -114.5600 C.3    15  TRP15       0.0590
     24  CG       -65.0040   31.4790 -114.8150 C.ar   15  TRP15       0.0006
     25  CD1      -63.7040   31.9170 -114.7770 C.ar   15  TRP15       0.0946
     26  CD2      -64.9440   30.1110 -115.2620 C.ar   15  TRP15       0.0152
     27  NE1      -62.8520   30.9200 -115.1830 N.ar   15  TRP15      -0.2442
     28  CE2      -63.5850   29.8040 -115.4890 C.ar   15  TRP15       0.0810
     29  CE3      -65.9090   29.1210 -115.5060 C.ar   15  TRP15       0.0012
     30  CZ2      -63.1660   28.5530 -115.9430 C.ar   15  TRP15       0.0191
     31  CZ3      -65.4850   27.8770 -115.9610 C.ar   15  TRP15       0.0001
     32  CH2      -64.1260   27.6100 -116.1780 C.ar   15  TRP15       0.0015
     33  N        -67.1500   32.0930 -111.5930 N.am   16  GLY16      -0.1954
     34  CA       -66.8040   31.7630 -110.2200 C.3    16  GLY16       0.1869
     35  C        -67.6300   30.6370 -109.6300 C.2    16  GLY16       0.2309
     36  O        -67.0860   29.7380 -108.9770 O.2    16  GLY16      -0.2863
     37  N        -65.8250   33.6090 -101.3890 N.3    40  TRP40      -0.1227
     38  CA       -66.1590   34.9790 -101.0360 C.3    40  TRP40       0.1737
     39  C        -67.2980   35.4540 -101.9310 C.2    40  TRP40       0.2595
     40  O        -67.2200   35.4040 -103.1530 O.2    40  TRP40      -0.2718
     41  CB       -64.9560   35.9260 -101.1790 C.3    40  TRP40       0.0564
     42  CG       -65.3790   37.3380 -100.8840 C.ar   40  TRP40       0.0003
     43  CD1      -65.9040   37.7920  -99.7150 C.ar   40  TRP40       0.0946
     44  CD2      -65.5290   38.4110 -101.8340 C.ar   40  TRP40       0.0152
     45  NE1      -66.3900   39.0620  -99.8720 N.ar   40  TRP40      -0.2442
     46  CE2      -66.1770   39.4720 -101.1610 C.ar   40  TRP40       0.0810
     47  CE3      -65.1880   38.5730 -103.1880 C.ar   40  TRP40       0.0012
     48  CZ2      -66.4950   40.6830 -101.7940 C.ar   40  TRP40       0.0191
     49  CZ3      -65.5040   39.7750 -103.8180 C.ar   40  TRP40       0.0001
     50  CH2      -66.1520   40.8150 -103.1180 C.ar   40  TRP40       0.0015
     51  N        -68.3730   35.9000 -101.3100 N.am   41  VAL41      -0.1966
     52  CA       -69.5200   36.3740 -102.0610 C.3    41  VAL41       0.1727
     53  C        -69.7980   37.8200 -101.6960 C.2    41  VAL41       0.2616
     54  O        -70.0070   38.1490 -100.5310 O.2    41  VAL41      -0.2715
     55  CB       -70.7950   35.5470 -101.7600 C.3    41  VAL41       0.0290
     56  CG1      -71.9590   36.1000 -102.5560 C.3    41  VAL41       0.0023
     57  CG2      -70.5610   34.0790 -102.0730 C.3    41  VAL41       0.0023
     58  N        -69.7590   38.6860 -102.6960 N.am   42  PHE42      -0.1974
     59  CA       -70.0540   40.0840 -102.4840 C.3    42  PHE42       0.1639
     60  C        -71.5600   40.1130 -102.1570 C.2    42  PHE42       0.2290
     61  O        -72.4030   39.9020 -103.0260 O.2    42  PHE42      -0.2864
     62  CB       -69.7310   40.8510 -103.7570 C.3    42  PHE42       0.0560
     63  CG       -70.2340   42.2420 -103.7540 C.ar   42  PHE42      -0.0200
     64  CD1      -71.3900   42.5780 -104.4500 C.ar   42  PHE42      -0.0042
     65  CD2      -69.5640   43.2340 -103.0390 C.ar   42  PHE42      -0.0042
     66  CE1      -71.8780   43.8930 -104.4360 C.ar   42  PHE42      -0.0003
     67  CE2      -70.0460   44.5530 -103.0190 C.ar   42  PHE42      -0.0003
     68  CZ       -71.2060   44.8780 -103.7210 C.ar   42  PHE42      -0.0000
     69  N        -75.4370   40.5880 -101.5750 N.3    44  GLU44      -0.1245
     70  CA       -76.4490   41.2450 -102.3830 C.3    44  GLU44       0.1567
     71  C        -77.8190   41.0020 -101.7900 C.2    44  GLU44       0.2260
     72  O        -78.0360   40.0000 -101.1110 O.2    44  GLU44      -0.2867
     73  CB       -76.4370   40.7090 -103.8110 C.3    44  GLU44       0.0388
     74  CG       -75.4040   41.3270 -104.7300 C.3    44  GLU44       0.1160
     75  CD       -75.5780   40.8470 -106.1630 C.2    44  GLU44       0.3649
     76  OE1      -75.0570   39.7750 -106.5080 O.co2  44  GLU44      -0.2457
     77  OE2      -76.2630   41.5290 -106.9420 O.co2  44  GLU44      -0.2457
     78  N        -77.8580   37.1140 -100.3650 N.3    51  LEU51      -0.1245
     79  CA       -77.4260   36.0960 -101.3030 C.3    51  LEU51       0.1561
     80  C        -76.6030   35.0500 -100.5850 C.2    51  LEU51       0.2260
     81  O        -76.7130   33.8730 -100.8960 O.2    51  LEU51      -0.2867
     82  CB       -76.6090   36.7260 -102.4280 C.3    51  LEU51       0.0270
     83  CG       -76.1110   35.8290 -103.5610 C.3    51  LEU51       0.0019
     84  CD1      -77.2520   35.0120 -104.1520 C.3    51  LEU51       0.0001
     85  CD2      -75.4700   36.7190 -104.6250 C.3    51  LEU51       0.0001
     86  N        -76.4900   34.0370 -110.8810 N.3    64  TYR64      -0.1241
     87  CA       -75.3270   34.0230 -111.7470 C.3    64  TYR64       0.1605
     88  C        -75.0230   32.6960 -112.4380 C.2    64  TYR64       0.2264
     89  O        -74.2450   32.6550 -113.4010 O.2    64  TYR64      -0.2867
     90  CB       -74.1030   34.4660 -110.9610 C.3    64  TYR64       0.0534
     91  CG       -74.1840   35.9000 -110.4930 C.ar   64  TYR64      -0.0201
     92  CD1      -74.5460   36.2130 -109.1760 C.ar   64  TYR64      -0.0009
     93  CD2      -73.9340   36.9560 -111.3830 C.ar   64  TYR64      -0.0009
     94  CE1      -74.6600   37.5300 -108.7590 C.ar   64  TYR64       0.0417
     95  CE2      -74.0480   38.2860 -110.9700 C.ar   64  TYR64       0.0417
     96  CZ       -74.4150   38.5600 -109.6560 C.ar   64  TYR64       0.1957
     97  OH       -74.5670   39.8600 -109.2630 O.3    64  TYR64      -0.2866
     98  N        -61.1220   34.9330 -108.8600 N.3    93  VAL93      -0.1231
     99  CA       -62.0220   34.9190 -110.0050 C.3    93  VAL93       0.1692
    100  C        -63.1860   35.9190 -109.8370 C.2    93  VAL93       0.2592
    101  O        -64.2800   35.5750 -109.3670 O.2    93  VAL93      -0.2718
    102  CB       -62.5490   33.4620 -110.2230 C.3    93  VAL93       0.0266
    103  CG1      -63.2530   32.9760 -108.9650 C.3    93  VAL93       0.0020
    104  CG2      -63.4740   33.3910 -111.4130 C.3    93  VAL93       0.0020
    105  N        -62.9200   37.1740 -110.1840 N.am   94  VAL94      -0.1966
    106  CA       -63.9260   38.2290 -110.1210 C.3    94  VAL94       0.1712
    107  C        -63.6250   39.1980 -111.2560 C.2    94  VAL94       0.2458
    108  O        -62.4940   39.2660 -111.7460 O.2    94  VAL94      -0.2730
    109  CB       -63.9010   39.0200 -108.7630 C.3    94  VAL94       0.0289
    110  CG1      -64.2230   38.0860 -107.6160 C.3    94  VAL94       0.0023
    111  CG2      -62.5350   39.6930 -108.5330 C.3    94  VAL94       0.0023
    112  N        -64.6320   39.9560 -111.7000 N.am   95  PRO95      -0.2727
    113  CA       -64.4370   40.9200 -112.7840 C.3    95  PRO95       0.1402
    114  C        -63.2700   41.8750 -112.4890 C.2    95  PRO95       0.2269
    115  O        -63.0380   42.2360 -111.3380 O.2    95  PRO95      -0.2865
    116  CB       -65.7750   41.6250 -112.8390 C.3    95  PRO95       0.0296
    117  CG       -66.7250   40.5240 -112.4900 C.3    95  PRO95       0.0237
    118  CD       -66.0480   39.8790 -111.3090 C.3    95  PRO95       0.0939
    119  N        -62.9980   44.8080 -109.7590 N.3    98  PHE98      -0.1241
    120  CA       -63.0210   44.5890 -108.3230 C.3    98  PHE98       0.1605
    121  C        -61.8050   44.0540 -107.5620 C.2    98  PHE98       0.2264
    122  O        -61.8230   44.0820 -106.3370 O.2    98  PHE98      -0.2867
    123  CB       -64.2590   43.7410 -107.9920 C.3    98  PHE98       0.0534
    124  CG       -65.5160   44.2290 -108.6760 C.ar   98  PHE98      -0.0203
    125  CD1      -66.2100   43.4070 -109.5710 C.ar   98  PHE98      -0.0042
    126  CD2      -65.9640   45.5310 -108.4890 C.ar   98  PHE98      -0.0042
    127  CE1      -67.3270   43.8840 -110.2720 C.ar   98  PHE98      -0.0003
    128  CE2      -67.0780   46.0140 -109.1850 C.ar   98  PHE98      -0.0003
    129  CZ       -67.7580   45.1910 -110.0780 C.ar   98  PHE98      -0.0000
    130  N        -60.3010   44.3090 -103.3370 N.3   102  ILE102     -0.1245
    131  CA       -60.1840   43.0220 -102.6680 C.3   102  ILE102      0.1561
    132  C        -58.7660   42.9110 -102.1470 C.2   102  ILE102      0.2260
    133  O        -58.5490   42.4640 -101.0320 O.2   102  ILE102     -0.2867
    134  CB       -60.3960   41.8280 -103.6270 C.3   102  ILE102      0.0252
    135  CG1      -61.7570   41.9190 -104.3340 C.3   102  ILE102      0.0019
    136  CG2      -60.2380   40.5120 -102.8460 C.3   102  ILE102      0.0019
    137  CD1      -62.9040   41.5740 -103.4800 C.3   102  ILE102      0.0001
    138  N        -57.8670   33.7320 -112.4910 N.3   119  LEU119     -0.1231
    139  CA       -58.6880   33.3320 -113.6090 C.3   119  LEU119      0.1693
    140  C        -59.2230   34.5830 -114.2800 C.2   119  LEU119      0.2592
    141  O        -60.1060   34.5040 -115.1350 O.2   119  LEU119     -0.2718
    142  CB       -59.8670   32.4910 -113.1200 C.3   119  LEU119      0.0284
    143  CG       -59.6020   31.0400 -112.7260 C.3   119  LEU119      0.0019
    144  CD1      -58.6780   30.9830 -111.5230 C.3   119  LEU119      0.0001
    145  CD2      -60.9250   30.3540 -112.4290 C.3   119  LEU119      0.0001
    146  N        -58.6800   35.7370 -113.9120 N.am  120  ILE120     -0.1966
    147  CA       -59.2000   36.9850 -114.4440 C.3   120  ILE120      0.1727
    148  C        -58.7370   37.3890 -115.8290 C.2   120  ILE120      0.2616
    149  O        -57.5380   37.3660 -116.1270 O.2   120  ILE120     -0.2715
    150  CB       -58.9260   38.1280 -113.4800 C.3   120  ILE120      0.0290
    151  CG1      -59.1720   37.6470 -112.0470 C.3   120  ILE120      0.0022
    152  CG2      -59.8000   39.3010 -113.8450 C.3   120  ILE120      0.0023
    153  CD1      -59.0670   38.7130 -110.9790 C.3   120  ILE120      0.0001
    154  N        -59.7050   37.7780 -116.6630 N.am  121  LYS121     -0.1977
    155  CA       -59.4280   38.1840 -118.0360 C.3   121  LYS121      0.1596
    156  C        -59.4670   39.6970 -118.2160 C.2   121  LYS121      0.2287
    157  O        -60.5150   40.3240 -118.1090 O.2   121  LYS121     -0.2864
    158  CB       -60.3830   37.4580 -118.9810 C.3   121  LYS121      0.0298
    159  CG       -59.9420   36.0200 -119.1460 C.3   121  LYS121      0.0038
    160  CD       -60.9800   35.1020 -119.7570 C.3   121  LYS121      0.0206
    161  CE       -60.4030   33.6800 -119.9290 C.3   121  LYS121      0.1093
    162  NZ       -61.3770   32.6670 -120.4780 N.3   121  LYS121     -0.1314
    163  N        -63.5320   28.4270 -121.8950 N.3   152  ASN152     -0.1225
    164  CA       -64.4390   27.9200 -120.8740 C.3   152  ASN152      0.1785
    165  C        -65.7760   28.6580 -120.6600 C.2   152  ASN152      0.2597
    166  O        -65.9990   29.1780 -119.5850 O.2   152  ASN152     -0.2718
    167  CB       -63.6870   27.8700 -119.5310 C.3   152  ASN152      0.1169
    168  CG       -62.2900   27.2380 -119.6500 C.2   152  ASN152      0.2627
    169  OD1      -62.1560   26.2040 -120.3400 O.2   152  ASN152     -0.2716
    170  ND2      -61.3230   27.7550 -119.0430 N.am  152  ASN152     -0.0877
    171  N        -66.6610   28.7230 -121.6500 N.am  153  ILE153     -0.1966
    172  CA       -67.9430   29.3820 -121.4330 C.3   153  ILE153      0.1727
    173  C        -68.4620   28.6780 -120.1620 C.2   153  ILE153      0.2616
    174  O        -68.5120   27.4480 -120.1110 O.2   153  ILE153     -0.2715
    175  CB       -68.9070   29.1150 -122.6230 C.3   153  ILE153      0.0290
    176  CG1      -68.3310   29.6980 -123.9200 C.3   153  ILE153      0.0022
    177  CG2      -70.2990   29.6720 -122.3320 C.3   153  ILE153      0.0023
    178  CD1      -68.4660   31.1530 -124.0450 C.3   153  ILE153      0.0001
    179  N        -68.8320   29.4470 -119.1400 N.am  154  ALA154     -0.1977
    180  CA       -69.2770   28.8820 -117.8690 C.3   154  ALA154      0.1597
    181  C        -70.4770   27.9360 -117.9430 C.2   154  ALA154      0.2287
    182  O        -70.4090   26.8120 -117.4430 O.2   154  ALA154     -0.2864
    183  CB       -69.5500   29.9940 -116.8900 C.3   154  ALA154      0.0319
    184  N        -58.4260   38.2290 -126.1010 N.3   205  LYS205     -0.1231
    185  CA       -59.4680   37.5800 -126.8840 C.3   205  LYS205      0.1693
    186  C        -60.8300   38.2620 -126.7230 C.2   205  LYS205      0.2592
    187  O        -61.6580   38.2150 -127.6380 O.2   205  LYS205     -0.2718
    188  CB       -59.5620   36.0810 -126.5300 C.3   205  LYS205      0.0285
    189  CG       -59.8800   35.7650 -125.0800 C.3   205  LYS205      0.0035
    190  CD       -61.3380   35.5280 -124.8760 C.3   205  LYS205      0.0206
    191  CE       -61.6710   35.4130 -123.4000 C.3   205  LYS205      0.1093
    192  NZ       -63.1290   35.1810 -123.1670 N.3   205  LYS205     -0.1314
    193  N        -61.0640   38.9080 -125.5800 N.am  206  ASN206     -0.1974
    194  CA       -62.3410   39.5600 -125.3750 C.3   206  ASN206      0.1688
    195  C        -62.5210   40.8030 -126.2460 C.2   206  ASN206      0.2292
    196  O        -63.6440   41.1550 -126.6030 O.2   206  ASN206     -0.2864
    197  CB       -62.5440   39.8830 -123.9030 C.3   206  ASN206      0.1181
    198  CG       -63.0110   38.6780 -123.1130 C.2   206  ASN206      0.2629
    199  OD1      -63.7290   37.8100 -123.6400 O.2   206  ASN206     -0.2716
    200  ND2      -62.6290   38.6190 -121.8430 N.am  206  ASN206     -0.0877
    201  N        -70.2650   36.4410 -123.8000 N.3   270  ARG270     -0.1245
    202  CA       -71.0970   37.5710 -123.4290 C.3   270  ARG270      0.1563
    203  C        -70.6580   38.8120 -124.1920 C.2   270  ARG270      0.2260
    204  O        -71.4820   39.5970 -124.6450 O.2   270  ARG270     -0.2867
    205  CB       -71.0410   37.7830 -121.9330 C.3   270  ARG270      0.0307
    206  CG       -71.7360   36.6670 -121.1960 C.3   270  ARG270      0.0489
    207  CD       -71.3070   36.6070 -119.7410 C.3   270  ARG270      0.2205
    208  NE       -69.8540   36.6200 -119.6010 N.pl3 270  ARG270     -0.0865
    209  CZ       -69.2230   36.8670 -118.4570 C.cat 270  ARG270      0.5346
    210  NH1      -69.9140   37.1100 -117.3540 N.pl3 270  ARG270      0.1354
    211  NH2      -67.9010   36.9310 -118.4310 N.pl3 270  ARG270      0.1354
    212  N        -76.5530   41.3290 -114.4720 N.3   295  GLY295     -0.1210
    213  CA       -75.5390   41.4610 -113.4450 C.3   295  GLY295      0.1956
    214  C        -74.1490   40.9900 -113.7770 C.2   295  GLY295      0.2612
    215  O        -73.2020   41.3550 -113.0890 O.2   295  GLY295     -0.2717
    216  N        -73.9980   40.1650 -114.8020 N.am  296  GLN296     -0.1965
    217  CA       -72.6600   39.7130 -115.1450 C.3   296  GLN296      0.1733
    218  C        -71.9000   40.8780 -115.7870 C.2   296  GLN296      0.2616
    219  O        -72.5070   41.8620 -116.2000 O.2   296  GLN296     -0.2715
    220  CB       -72.7440   38.4820 -116.0450 C.3   296  GLN296      0.0408
    221  CG       -73.4390   37.3350 -115.3320 C.3   296  GLN296      0.0908
    222  CD       -73.4810   36.0660 -116.1570 C.2   296  GLN296      0.2608
    223  OE1      -74.2690   35.1570 -115.8850 O.2   296  GLN296     -0.2717
    224  NE2      -72.6280   35.9950 -117.1730 N.am  296  GLN296     -0.0878
    225  N        -70.5800   40.7830 -115.8600 N.am  297  LYS297     -0.1977
    226  CA       -69.7840   41.8790 -116.4020 C.3   297  LYS297      0.1596
    227  C        -69.0780   41.6320 -117.7240 C.2   297  LYS297      0.2287
    228  O        -68.6930   40.5220 -118.0370 O.2   297  LYS297     -0.2864
    229  CB       -68.7180   42.2970 -115.3790 C.3   297  LYS297      0.0298
    230  CG       -69.2430   42.5880 -113.9860 C.3   297  LYS297      0.0038
    231  CD       -70.2430   43.7220 -114.0290 C.3   297  LYS297      0.0206
    232  CE       -70.6480   44.1520 -112.6490 C.3   297  LYS297      0.1093
    233  NZ       -71.3900   45.4270 -112.7520 N.3   297  LYS297     -0.1314
    234  N        -65.8110   42.5640 -120.2480 N.3   299  GLN299     -0.1245
    235  CA       -64.3990   42.8780 -120.0530 C.3   299  GLN299      0.1566
    236  C        -63.7700   43.4090 -121.3390 C.2   299  GLN299      0.2260
    237  O        -62.8340   44.2050 -121.3040 O.2   299  GLN299     -0.2867
    238  CB       -63.6530   41.6270 -119.6060 C.3   299  GLN299      0.0367
    239  CG       -64.2300   40.9310 -118.3760 C.3   299  GLN299      0.0905
    240  CD       -64.4630   41.8750 -117.1840 C.2   299  GLN299      0.2608
    241  OE1      -63.6650   42.7810 -116.9020 O.2   299  GLN299     -0.2717
    242  NE2      -65.5570   41.6440 -116.4650 N.am  299  GLN299     -0.0878
@<TRIPOS>BOND
     1   187   186    2
     2   185   186    1
     3   185   188    1
     4   185   184    1
     5   186   193   am
     6   196   195    2
     7   188   189    1
     8   195   194    1
     9   193   194    1
    10   194   197    1
    11   189   190    1
    12   190   191    1
    13   204   203    2
    14   203   202    1
    15   178   176    1
    16   176   175    1
    17   197   198    1
    18   201   202    1
    19   199   198    2
    20   202   205    1
    21   191   192    1
    22   198   200   am
    23   175   177    1
    24   175   172    1
    25   205   206    1
    26   163   164    1
    27   171   172    1
    28   171   165   am
    29   172   173    1
    30   236   237    2
    31   236   235    1
    32   206   207    1
    33   164   165    1
    34   164   167    1
    35   165   166    2
    36   162   161    1
    37   169   168    2
    38   234   235    1
    39   173   174    2
    40   173   179   am
    41   235   238    1
    42   161   160    1
    43   160   159    1
    44   207   208    1
    45   168   167    1
    46   168   170   am
    47   238   239    1
    48   208   209    2
    49   159   158    1
    50   179   180    1
    51   158   155    1
    52   209   211    1
    53   209   210    1
    54   239   240    1
    55   156   157    2
    56   156   155    1
    57   228   227    2
    58   155   154    1
    59   181   180    1
    60   181   182    2
    61   180   183    1
    62   227   226    1
    63   240   241    2
    64   240   242   am
    65   224   222   am
    66    17    16    2
    67   154   148   am
    68   226   225    1
    69   226   229    1
    70   219   218    2
    71    32    31   ar
    72    32    30   ar
    73   222   223    2
    74   222   221    1
    75   149   148    2
    76   220   221    1
    77   220   217    1
    78    16    18   am
    79    16    15    1
    80    31    29   ar
    81    30    28   ar
    82   225   218   am
    83   148   147    1
    84   218   217    1
    85    29    26   ar
    86    28    26   ar
    87    28    27   ar
    88   229   230    1
    89    26    24   ar
    90    27    25   ar
    91   217   216    1
    92   141   140    2
    93    15    12    1
    94    24    25   ar
    95    24    23    1
    96   216   214   am
    97    23    20    1
    98   212   213    1
    99   147   146    1
   100   147   150    1
   101   140   146   am
   102   140   139    1
   103   231   230    1
   104   231   232    1
   105    20    19    1
   106    20    21    1
   107    19    13   am
   108   152   150    1
   109   214   213    1
   110   214   215    2
   111   139   142    1
   112   139   138    1
   113    13    12    1
   114    13    14    2
   115    12    11    1
   116   150   151    1
   117    89    88    2
   118   142   143    1
   119   116   113    1
   120   116   117    1
   121   113   114    1
   122   113   112    1
   123   233   232    1
   124   143   145    1
   125   143   144    1
   126    11     9   am
   127    21    22    2
   128    21    33   am
   129   117   118    1
   130   114   115    2
   131    88    87    1
   132   151   153    1
   133    87    90    1
   134    87    86    1
   135   108   107    2
   136   112   118    1
   137   112   107   am
   138    33    34    1
   139   104   102    1
   140    93    95   ar
   141    93    91   ar
   142     9    10    2
   143     9     8    1
   144   107   106    1
   145    95    96   ar
   146    90    91    1
   147    91    92   ar
   148     8     7    1
   149   127   129   ar
   150   127   125   ar
   151   102    99    1
   152   102   103    1
   153    34    35    1
   154   105   106    1
   155   105   100   am
   156   106   109    1
   157   129   128   ar
   158    99   100    1
   159    99    98    1
   160   100   101    2
   161   119   120    1
   162    96    97    1
   163    96    94   ar
   164    35    36    2
   165   125   124   ar
   166     7     3   am
   167   128   126   ar
   168    92    94   ar
   169   109   111    1
   170   109   110    1
   171   124   126   ar
   172   124   123    1
   173   120   123    1
   174   120   121    1
   175     3     4    2
   176     3     2    1
   177   121   122    2
   178     2     1    1
   179     2     5    1
   180    77    75   ar
   181    76    75   ar
   182    75    74    1
   183     5     6    1
   184    74    73    1
   185    85    83    1
   186    64    66   ar
   187    64    63   ar
   188    66    68   ar
   189   135   134    1
   190   135   137    1
   191    84    83    1
   192    49    47   ar
   193    49    50   ar
   194    73    70    1
   195    62    63    1
   196    62    59    1
   197    63    65   ar
   198    68    67   ar
   199   134   136    1
   200   134   131    1
   201    83    82    1
   202   130   131    1
   203    47    44   ar
   204    40    39    2
   205    50    48   ar
   206    65    67   ar
   207    61    60    2
   208    58    59    1
   209    58    53   am
   210   131   132    1
   211    56    55    1
   212    59    60    1
   213    82    79    1
   214    70    71    1
   215    70    69    1
   216   132   133    2
   217    57    55    1
   218    52    55    1
   219    52    53    1
   220    52    51    1
   221    39    51   am
   222    39    38    1
   223    44    46   ar
   224    44    42   ar
   225    48    46   ar
   226    71    72    2
   227    53    54    2
   228    37    38    1
   229    79    80    1
   230    79    78    1
   231    41    38    1
   232    41    42    1
   233    46    45   ar
   234    81    80    2
   235    42    43   ar
   236    45    43   ar
