@<TRIPOS>MOLECULE
tmp/1x1jA00.pdb
 206 204 0 0 0
SMALL
GASTEIGER

@<TRIPOS>ATOM
      1  N          6.2720   59.3340   72.4990 N.3    69  ASN69      -0.1240
      2  CA         6.4570   58.1890   73.3910 C.3    69  ASN69       0.1653
      3  C          5.1840   57.9360   74.1930 C.2    69  ASN69       0.2266
      4  O          4.7890   56.7870   74.4060 O.2    69  ASN69      -0.2867
      5  CB         7.6300   58.4270   74.3470 C.3    69  ASN69       0.1155
      6  CG         8.0150   57.1750   75.1130 C.2    69  ASN69       0.2627
      7  OD1        7.6950   57.0250   76.2930 O.2    69  ASN69      -0.2716
      8  ND2        8.6920   56.2600   74.4370 N.am   69  ASN69      -0.0877
      9  N          2.5880   54.7440   74.2720 N.3    73  GLU73      -0.1245
     10  CA         2.2510   54.1060   75.5340 C.3    73  GLU73       0.1567
     11  C          0.7400   53.8990   75.6040 C.2    73  GLU73       0.2260
     12  O          0.2700   52.7990   75.8800 O.2    73  GLU73      -0.2867
     13  CB         2.7070   54.9630   76.7120 C.3    73  GLU73       0.0388
     14  CG         4.2090   55.0990   76.8310 C.3    73  GLU73       0.1160
     15  CD         4.6350   55.7080   78.1540 C.2    73  GLU73       0.3649
     16  OE1        4.2280   56.8560   78.4470 O.co2  73  GLU73      -0.2457
     17  OE2        5.3780   55.0340   78.9030 O.co2  73  GLU73      -0.2457
     18  N         16.5690   64.7440   69.9130 N.3   120  TYR120     -0.1227
     19  CA        16.0820   64.7330   71.2920 C.3   120  TYR120      0.1736
     20  C         14.6160   64.2880   71.3210 C.2   120  TYR120      0.2595
     21  O         13.7870   64.8470   70.6000 O.2   120  TYR120     -0.2718
     22  CB        16.1910   66.1360   71.9030 C.3   120  TYR120      0.0548
     23  CG        15.7120   66.2090   73.3350 C.ar  120  TYR120     -0.0200
     24  CD1       16.5510   65.8520   74.3890 C.ar  120  TYR120     -0.0009
     25  CD2       14.3990   66.5700   73.6310 C.ar  120  TYR120     -0.0009
     26  CE1       16.0960   65.8460   75.7050 C.ar  120  TYR120      0.0417
     27  CE2       13.9290   66.5650   74.9480 C.ar  120  TYR120      0.0417
     28  CZ        14.7860   66.1990   75.9780 C.ar  120  TYR120      0.1957
     29  OH        14.3330   66.1730   77.2790 O.3   120  TYR120     -0.2866
     30  N         14.2820   63.2920   72.1390 N.am  121  ASN121     -0.1960
     31  CA        15.2240   62.5910   73.0050 C.3   121  ASN121      0.1819
     32  C         15.5080   61.2420   72.3480 C.2   121  ASN121      0.2621
     33  O         14.6010   60.4340   72.1530 O.2   121  ASN121     -0.2715
     34  CB        14.5880   62.3930   74.3900 C.3   121  ASN121      0.1195
     35  CG        15.5360   61.7600   75.4020 C.2   121  ASN121      0.2630
     36  OD1       15.1760   61.5810   76.5680 O.2   121  ASN121     -0.2716
     37  ND2       16.7420   61.4210   74.9670 N.am  121  ASN121     -0.0877
     38  N         16.7650   61.0090   71.9940 N.am  122  TRP122     -0.1960
     39  CA        17.1620   59.7650   71.3410 C.3   122  TRP122      0.1771
     40  C         16.5890   58.5270   72.0390 C.2   122  TRP122      0.2620
     41  O         16.2390   57.5460   71.3780 O.2   122  TRP122     -0.2715
     42  CB        18.6880   59.6480   71.3090 C.3   122  TRP122      0.0590
     43  CG        19.2630   59.4420   72.6660 C.ar  122  TRP122      0.0006
     44  CD1       19.5640   60.4020   73.5840 C.ar  122  TRP122      0.0946
     45  CD2       19.5140   58.1860   73.2990 C.ar  122  TRP122      0.0152
     46  NE1       19.9860   59.8220   74.7550 N.ar  122  TRP122     -0.2442
     47  CE2       19.9640   58.4610   74.6070 C.ar  122  TRP122      0.0810
     48  CE3       19.3990   56.8510   72.8870 C.ar  122  TRP122      0.0012
     49  CZ2       20.2990   57.4500   75.5100 C.ar  122  TRP122      0.0191
     50  CZ3       19.7320   55.8440   73.7860 C.ar  122  TRP122      0.0001
     51  CH2       20.1770   56.1510   75.0830 C.ar  122  TRP122      0.0015
     52  N         16.5020   58.5780   73.3710 N.am  123  TRP123     -0.1960
     53  CA        15.9950   57.4560   74.1610 C.3   123  TRP123      0.1771
     54  C         14.6030   57.0200   73.7390 C.2   123  TRP123      0.2619
     55  O         14.3200   55.8300   73.6700 O.2   123  TRP123     -0.2715
     56  CB        15.9680   57.7950   75.6540 C.3   123  TRP123      0.0590
     57  CG        15.7630   56.5710   76.4990 C.ar  123  TRP123      0.0006
     58  CD1       16.7260   55.7030   76.9310 C.ar  123  TRP123      0.0946
     59  CD2       14.5110   56.0190   76.9220 C.ar  123  TRP123      0.0152
     60  NE1       16.1530   54.6430   77.5910 N.ar  123  TRP123     -0.2442
     61  CE2       14.7940   54.8100   77.5990 C.ar  123  TRP123      0.0810
     62  CE3       13.1740   56.4270   76.7910 C.ar  123  TRP123      0.0012
     63  CZ2       13.7900   54.0020   78.1430 C.ar  123  TRP123      0.0191
     64  CZ3       12.1730   55.6230   77.3330 C.ar  123  TRP123      0.0001
     65  CH2       12.4890   54.4230   78.0010 C.ar  123  TRP123      0.0015
     66  N         13.7330   57.9880   73.4680 N.am  124  HIS124     -0.1973
     67  CA        12.3630   57.7020   73.0490 C.3   124  HIS124      0.1656
     68  C         12.3280   57.0700   71.6660 C.2   124  HIS124      0.2291
     69  O         11.6430   56.0700   71.4390 O.2   124  HIS124     -0.2864
     70  CB        11.5430   58.9930   73.0230 C.3   124  HIS124      0.0771
     71  CG        11.2620   59.5560   74.3780 C.ar  124  HIS124      0.0820
     72  ND1       11.0720   60.9030   74.5970 N.ar  124  HIS124     -0.2267
     73  CD2       11.1360   58.9560   75.5870 C.ar  124  HIS124      0.1154
     74  CE1       10.8450   61.1100   75.8830 C.ar  124  HIS124      0.1986
     75  NE2       10.8780   59.9450   76.5060 N.ar  124  HIS124     -0.2212
     76  N         21.6950   49.6950   81.3490 N.3   168  ALA168     -0.1231
     77  CA        20.2740   49.7760   81.0240 C.3   168  ALA168      0.1694
     78  C         20.0100   49.9910   79.5340 C.2   168  ALA168      0.2591
     79  O         19.1560   49.3280   78.9510 O.2   168  ALA168     -0.2718
     80  CB        19.6160   50.8880   81.8440 C.3   168  ALA168      0.0304
     81  N         20.7360   50.9200   78.9250 N.am  169  ALA169     -0.1980
     82  CA        20.5730   51.2030   77.5050 C.3   169  ALA169      0.1597
     83  C         20.7800   49.9380   76.6740 C.2   169  ALA169      0.2287
     84  O         19.9770   49.6250   75.7930 O.2   169  ALA169     -0.2864
     85  CB        21.5650   52.2860   77.0650 C.3   169  ALA169      0.0319
     86  N         17.9510   47.5410   77.1340 N.3   172  TRP172     -0.1241
     87  CA        16.7700   48.0170   76.4330 C.3   172  TRP172      0.1605
     88  C         16.9110   47.7460   74.9400 C.2   172  TRP172      0.2264
     89  O         15.9410   47.3840   74.2760 O.2   172  TRP172     -0.2867
     90  CB        16.5480   49.5080   76.7020 C.3   172  TRP172      0.0550
     91  CG        15.8700   49.7840   78.0140 C.ar  172  TRP172      0.0003
     92  CD1       14.8010   49.1130   78.5390 C.ar  172  TRP172      0.0946
     93  CD2       16.1490   50.8620   78.9210 C.ar  172  TRP172      0.0152
     94  NE1       14.3920   49.7070   79.7120 N.ar  172  TRP172     -0.2442
     95  CE2       15.2010   50.7820   79.9710 C.ar  172  TRP172      0.0810
     96  CE3       17.1030   51.8900   78.9470 C.ar  172  TRP172      0.0012
     97  CZ2       15.1800   51.6920   81.0360 C.ar  172  TRP172      0.0191
     98  CZ3       17.0810   52.7970   80.0080 C.ar  172  TRP172      0.0001
     99  CH2       16.1220   52.6890   81.0380 C.ar  172  TRP172      0.0015
    100  N         25.5980   53.7500   87.3270 N.3   220  GLN220     -0.1231
    101  CA        25.1340   54.0670   85.9790 C.3   220  GLN220      0.1698
    102  C         25.5800   55.4890   85.6670 C.2   220  GLN220      0.2592
    103  O         25.6650   56.3300   86.5640 O.2   220  GLN220     -0.2718
    104  CB        23.6140   53.9490   85.8810 C.3   220  GLN220      0.0381
    105  CG        23.0910   53.7810   84.4520 C.3   220  GLN220      0.0905
    106  CD        23.4520   52.4320   83.8270 C.2   220  GLN220      0.2608
    107  OE1       22.8900   52.0420   82.8030 O.2   220  GLN220     -0.2717
    108  NE2       24.3920   51.7210   84.4410 N.am  220  GLN220     -0.0878
    109  N         25.8750   55.7580   84.4020 N.am  221  HIS221     -0.1976
    110  CA        26.3410   57.0840   84.0120 C.3   221  HIS221      0.1656
    111  C         27.6610   57.4350   84.7060 C.2   221  HIS221      0.2291
    112  O         27.8830   58.5760   85.1140 O.2   221  HIS221     -0.2864
    113  CB        25.2820   58.1520   84.3280 C.3   221  HIS221      0.0771
    114  CG        24.0860   58.0980   83.4310 C.ar  221  HIS221      0.0820
    115  ND1       23.0880   59.0490   83.4640 N.ar  221  HIS221     -0.2267
    116  CD2       23.7260   57.2080   82.4760 C.ar  221  HIS221      0.1154
    117  CE1       22.1650   58.7460   82.5690 C.ar  221  HIS221      0.1986
    118  NE2       22.5280   57.6330   81.9560 N.ar  221  HIS221     -0.2212
    119  N         18.2060   52.9850   87.3200 N.3   230  TYR230     -0.1241
    120  CA        18.6260   52.2700   86.1230 C.3   230  TYR230      0.1605
    121  C         18.8440   50.7800   86.4270 C.2   230  TYR230      0.2264
    122  O         18.6800   49.9330   85.5520 O.2   230  TYR230     -0.2867
    123  CB        19.9080   52.8900   85.5680 C.3   230  TYR230      0.0534
    124  CG        19.6840   54.1410   84.7410 C.ar  230  TYR230     -0.0201
    125  CD1       19.1100   54.0670   83.4690 C.ar  230  TYR230     -0.0009
    126  CD2       20.0750   55.3920   85.2140 C.ar  230  TYR230     -0.0009
    127  CE1       18.9380   55.2070   82.6850 C.ar  230  TYR230      0.0417
    128  CE2       19.9090   56.5380   84.4390 C.ar  230  TYR230      0.0417
    129  CZ        19.3420   56.4400   83.1750 C.ar  230  TYR230      0.1957
    130  OH        19.2050   57.5750   82.4040 O.3   230  TYR230     -0.2866
    131  N         15.7220   48.8820   86.0320 N.3   233  SER233     -0.1217
    132  CA        15.4630   48.7100   84.6100 C.3   233  SER233      0.1889
    133  C         16.2610   47.5350   84.0420 C.2   233  SER233      0.2288
    134  O         15.7060   46.6960   83.3300 O.2   233  SER233     -0.2866
    135  CB        15.8070   49.9970   83.8530 C.3   233  SER233      0.2089
    136  OG        14.9530   51.0570   84.2560 O.3   233  SER233     -0.2183
    137  N         18.1020   60.4590   89.8650 N.3   284  ARG284     -0.1231
    138  CA        17.1440   61.5130   89.5710 C.3   284  ARG284      0.1694
    139  C         15.7040   61.0250   89.5140 C.2   284  ARG284      0.2591
    140  O         14.7770   61.8250   89.4130 O.2   284  ARG284     -0.2718
    141  CB        17.5120   62.2280   88.2620 C.3   284  ARG284      0.0321
    142  CG        17.2770   61.4430   86.9790 C.3   284  ARG284      0.0489
    143  CD        17.6440   62.2970   85.7650 C.3   284  ARG284      0.2205
    144  NE        17.0580   61.7890   84.5280 N.pl3 284  ARG284     -0.0865
    145  CZ        17.4260   60.6620   83.9270 C.cat 284  ARG284      0.5346
    146  NH1       18.3950   59.9130   84.4450 N.pl3 284  ARG284      0.1354
    147  NH2       16.8050   60.2710   82.8200 N.pl3 284  ARG284      0.1354
    148  N         15.5090   59.7150   89.5990 N.am  285  GLU285     -0.1979
    149  CA        14.1590   59.1660   89.5450 C.3   285  GLU285      0.1602
    150  C         13.3400   59.4810   90.7970 C.2   285  GLU285      0.2287
    151  O         12.1240   59.2780   90.8140 O.2   285  GLU285     -0.2864
    152  CB        14.2100   57.6540   89.2950 C.3   285  GLU285      0.0415
    153  CG        14.7110   57.2930   87.8920 C.3   285  GLU285      0.1163
    154  CD        14.6100   55.8010   87.5970 C.2   285  GLU285      0.3649
    155  OE1       13.6400   55.1680   88.0700 O.co2 285  GLU285     -0.2457
    156  OE2       15.4890   55.2640   86.8800 O.co2 285  GLU285     -0.2457
    157  N         10.3970   61.6170   90.2550 N.3   288  ARG288     -0.1245
    158  CA         9.3200   61.0930   89.4110 C.3   288  ARG288      0.1563
    159  C          8.1340   60.6270   90.2380 C.2   288  ARG288      0.2260
    160  O          8.2300   59.6570   90.9990 O.2   288  ARG288     -0.2867
    161  CB         9.8390   59.9380   88.5520 C.3   288  ARG288      0.0307
    162  CG        10.8510   60.3800   87.5110 C.3   288  ARG288      0.0489
    163  CD        11.4140   59.2050   86.7250 C.3   288  ARG288      0.2205
    164  NE        12.4000   59.6600   85.7510 N.pl3 288  ARG288     -0.0865
    165  CZ        13.0470   58.8630   84.9090 C.cat 288  ARG288      0.5346
    166  NH1       12.8150   57.5620   84.9210 N.pl3 288  ARG288      0.1354
    167  NH2       13.9190   59.3720   84.0470 N.pl3 288  ARG288      0.1354
    168  N          5.4590   59.0270   89.4250 N.3   290  TYR290     -0.1241
    169  CA         5.0170   57.6620   89.1480 C.3   290  TYR290      0.1605
    170  C          6.0150   56.6030   89.5960 C.2   290  TYR290      0.2264
    171  O          5.7720   55.4040   89.4290 O.2   290  TYR290     -0.2867
    172  CB         4.7490   57.4800   87.6570 C.3   290  TYR290      0.0534
    173  CG         5.8730   57.9690   86.7780 C.ar  290  TYR290     -0.0201
    174  CD1        5.9320   59.3000   86.3740 C.ar  290  TYR290     -0.0009
    175  CD2        6.8900   57.1070   86.3660 C.ar  290  TYR290     -0.0009
    176  CE1        6.9730   59.7640   85.5830 C.ar  290  TYR290      0.0417
    177  CE2        7.9360   57.5610   85.5730 C.ar  290  TYR290      0.0417
    178  CZ         7.9690   58.8920   85.1860 C.ar  290  TYR290      0.1957
    179  OH         8.9930   59.3560   84.4000 O.3   290  TYR290     -0.2866
    180  N         19.3590   65.7580   85.0650 N.3   398  ILE398     -0.1231
    181  CA        19.3700   66.0100   83.6330 C.3   398  ILE398      0.1692
    182  C         17.9180   66.0360   83.1790 C.2   398  ILE398      0.2592
    183  O         17.0250   65.6100   83.9130 O.2   398  ILE398     -0.2718
    184  CB        20.1510   64.9220   82.8450 C.3   398  ILE398      0.0266
    185  CG1       19.5100   63.5480   83.0400 C.3   398  ILE398      0.0019
    186  CG2       21.6060   64.9100   83.2900 C.3   398  ILE398      0.0020
    187  CD1       20.1630   62.4480   82.2030 C.3   398  ILE398      0.0001
    188  N         17.6900   66.5490   81.9760 N.am  399  ASN399     -0.1974
    189  CA        16.3490   66.6610   81.4080 C.3   399  ASN399      0.1688
    190  C         15.3640   67.3350   82.3600 C.2   399  ASN399      0.2292
    191  O         14.1870   66.9790   82.4040 O.2   399  ASN399     -0.2864
    192  CB        15.8260   65.2880   81.0030 C.3   399  ASN399      0.1181
    193  CG        16.7370   64.5930   80.0210 C.2   399  ASN399      0.2629
    194  OD1       17.2850   65.2220   79.1120 O.2   399  ASN399     -0.2716
    195  ND2       16.8980   63.2840   80.1870 N.am  399  ASN399     -0.0877
    196  N          9.0380   68.5250   83.2880 N.3   587  ARG587     -0.1245
    197  CA         8.7860   67.9050   81.9960 C.3   587  ARG587      0.1563
    198  C          7.3020   68.0830   81.7060 C.2   587  ARG587      0.2260
    199  O          6.4750   68.0110   82.6120 O.2   587  ARG587     -0.2867
    200  CB         9.1580   66.4230   82.0180 C.3   587  ARG587      0.0307
    201  CG        10.6560   66.1770   82.1650 C.3   587  ARG587      0.0489
    202  CD        10.9760   64.7050   82.0800 C.3   587  ARG587      0.2205
    203  NE        10.2330   63.9510   83.0820 N.pl3 587  ARG587     -0.0865
    204  CZ        10.1340   62.6260   83.0970 C.cat 587  ARG587      0.5346
    205  NH1       10.7360   61.9040   82.1580 N.pl3 587  ARG587      0.1354
    206  NH2        9.4190   62.0280   84.0480 N.pl3 587  ARG587      0.1354
@<TRIPOS>BOND
     1    18    19    1
     2    21    20    2
     3    19    20    1
     4    19    22    1
     5    42    39    1
     6    42    43    1
     7    20    30   am
     8    39    38    1
     9    39    40    1
    10    41    40    2
    11    69    68    2
    12    68    67    1
    13    22    23    1
    14    38    32   am
    15    40    52   am
    16    30    31    1
    17    33    32    2
    18    32    31    1
    19     1     2    1
    20    43    45   ar
    21    43    44   ar
    22    48    45   ar
    23    48    50   ar
    24    31    34    1
    25    70    67    1
    26    70    71    1
    27    67    66    1
    28    45    47   ar
    29    23    25   ar
    30    23    24   ar
    31    52    53    1
    32     2     3    1
    33     2     5    1
    34    66    54   am
    35    44    46   ar
    36    25    27   ar
    37    55    54    2
    38    54    53    1
    39    50    51   ar
    40    53    56    1
    41     3     4    2
    42     9    10    1
    43    89    88    2
    44     5     6    1
    45    71    72   ar
    46    71    73   ar
    47    24    26   ar
    48    34    35    1
    49     8     6   am
    50    72    74   ar
    51    47    46   ar
    52    47    49   ar
    53    88    87    1
    54    27    28   ar
    55    37    35   am
    56    51    49   ar
    57     6     7    2
    58    35    36    2
    59    10    11    1
    60    10    13    1
    61    73    75   ar
    62    11    12    2
    63    56    57    1
    64    26    28   ar
    65    84    83    2
    66    74    75   ar
    67    28    29    1
    68    87    90    1
    69    87    86    1
    70    57    59   ar
    71    57    58   ar
    72    83    82    1
    73    90    91    1
    74    13    14    1
    75    62    59   ar
    76    62    64   ar
    77    14    15    1
    78    59    61   ar
    79    58    60   ar
    80    85    82    1
    81    64    65   ar
    82    82    81    1
    83    60    61   ar
    84    61    63   ar
    85    65    63   ar
    86    91    92   ar
    87    91    93   ar
    88    15    16   ar
    89    15    17   ar
    90    92    94   ar
    91    93    96   ar
    92    93    95   ar
    93    81    78   am
    94    96    98   ar
    95    79    78    2
    96   194   193    2
    97    78    77    1
    98    94    95   ar
    99    95    97   ar
   100    98    99   ar
   101   193   195   am
   102   193   192    1
   103   192   189    1
   104    77    76    1
   105    77    80    1
   106    97    99   ar
   107   189   188    1
   108   189   190    1
   109   198   197    1
   110   198   199    2
   111   118   116   ar
   112   118   117   ar
   113   188   182   am
   114   197   200    1
   115   197   196    1
   116   200   201    1
   117   202   201    1
   118   202   203    1
   119   205   204    1
   120   187   185    1
   121   190   191    2
   122   130   129    1
   123   116   114   ar
   124   117   115   ar
   125   127   129   ar
   126   127   125   ar
   127   107   106    2
   128   147   145    1
   129   184   185    1
   130   184   186    1
   131   184   181    1
   132   203   204    2
   133   204   206    1
   134   129   128   ar
   135   182   181    1
   136   182   183    2
   137   134   133    2
   138   114   115   ar
   139   114   113    1
   140   125   124   ar
   141   181   180    1
   142   106   108   am
   143   106   105    1
   144   135   136    1
   145   135   132    1
   146   145   146    1
   147   145   144    2
   148   110   113    1
   149   110   109    1
   150   110   111    1
   151   133   132    1
   152   167   165    1
   153   179   178    1
   154   109   102   am
   155   128   126   ar
   156   105   104    1
   157   144   143    1
   158   132   131    1
   159   111   112    2
   160   124   126   ar
   161   124   123    1
   162   165   166    1
   163   165   164    2
   164   178   177   ar
   165   178   176   ar
   166   122   121    2
   167   123   120    1
   168   177   175   ar
   169   176   174   ar
   170   102   101    1
   171   102   103    2
   172   164   163    1
   173   143   142    1
   174   104   101    1
   175   101   100    1
   176   120   121    1
   177   120   119    1
   178   175   173   ar
   179   174   173   ar
   180   163   162    1
   181   173   172    1
   182   156   154   ar
   183   142   141    1
   184   162   161    1
   185   154   153    1
   186   154   155   ar
   187   172   169    1
   188   153   152    1
   189   141   138    1
   190   161   158    1
   191   169   168    1
   192   169   170    1
   193   152   149    1
   194   158   159    1
   195   158   157    1
   196   140   139    2
   197   171   170    2
   198   139   138    1
   199   139   148   am
   200   149   148    1
   201   149   150    1
   202   138   137    1
   203   159   160    2
   204   150   151    2
