@<TRIPOS>MOLECULE
tmp/1x27E00.pdb
 182 178 0 0 0
SMALL
GASTEIGER

@<TRIPOS>ATOM
      1  N         21.1600   16.0790  143.2530 N.3    71  ARG71      -0.1245
      2  CA        22.0880   16.9000  143.9960 C.3    71  ARG71       0.1563
      3  C         22.1380   16.4610  145.4540 C.2    71  ARG71       0.2260
      4  O         23.1610   16.6190  146.1170 O.2    71  ARG71      -0.2867
      5  CB        21.6690   18.3580  143.9150 C.3    71  ARG71       0.0307
      6  CG        22.4330   19.2620  144.8480 C.3    71  ARG71       0.0489
      7  CD        21.8670   20.6460  144.8070 C.3    71  ARG71       0.2205
      8  NE        22.4360   21.5070  145.8260 N.pl3  71  ARG71      -0.0865
      9  CZ        23.1220   22.6220  145.5760 C.cat  71  ARG71       0.5346
     10  NH1       23.3350   23.0170  144.3270 N.pl3  71  ARG71       0.1354
     11  NH2       23.5910   23.3590  146.5800 N.pl3  71  ARG71       0.1354
     12  N         27.6860   15.8590  137.6020 N.3    91  ARG91      -0.1245
     13  CA        26.3480   15.4000  137.2910 C.3    91  ARG91       0.1563
     14  C         25.7000   16.5260  136.5000 C.2    91  ARG91       0.2260
     15  O         26.2320   17.6340  136.4370 O.2    91  ARG91      -0.2867
     16  CB        25.5820   15.1740  138.5820 C.3    91  ARG91       0.0307
     17  CG        25.6450   16.3640  139.5370 C.3    91  ARG91       0.0489
     18  CD        24.3690   16.4630  140.3520 C.3    91  ARG91       0.2205
     19  NE        24.0870   17.8660  140.6730 N.pl3  91  ARG91      -0.0865
     20  CZ        24.7330   18.5440  141.6090 C.cat  91  ARG91       0.5346
     21  NH1       25.6820   17.9380  142.3130 N.pl3  91  ARG91       0.1354
     22  NH2       24.4470   19.8130  141.8200 N.pl3  91  ARG91       0.1354
     23  N         23.2990   19.5630  135.6800 N.3    93  SER93      -0.1202
     24  CA        22.7190   20.6430  136.4850 C.3    93  SER93       0.2020
     25  C         21.2190   20.4540  136.6590 C.2    93  SER93       0.2619
     26  O         20.4680   20.4240  135.6880 O.2    93  SER93      -0.2717
     27  CB        22.9860   22.0030  135.8360 C.3    93  SER93       0.2103
     28  OG        22.4720   23.0530  136.6400 O.3    93  SER93      -0.2182
     29  N         20.7850   20.3320  137.9050 N.am   94  GLU94      -0.1965
     30  CA        19.3730   20.1340  138.1890 C.3    94  GLU94       0.1733
     31  C         18.6460   21.4730  138.2290 C.2    94  GLU94       0.2617
     32  O         17.4150   21.5240  138.2620 O.2    94  GLU94      -0.2715
     33  CB        19.2020   19.4350  139.5330 C.3    94  GLU94       0.0429
     34  CG        19.5740   20.3240  140.6900 C.3    94  GLU94       0.1163
     35  CD        18.9680   19.8690  141.9900 C.2    94  GLU94       0.3649
     36  OE1       18.8150   20.7260  142.8960 O.co2  94  GLU94      -0.2457
     37  OE2       18.6520   18.6590  142.1070 O.co2  94  GLU94      -0.2457
     38  N         19.4160   22.5550  138.2380 N.am   95  SER95      -0.1950
     39  CA        18.8420   23.8890  138.2910 C.3    95  SER95       0.1924
     40  C         18.8870   24.5780  136.9290 C.2    95  SER95       0.2314
     41  O         18.1140   25.5020  136.6750 O.2    95  SER95      -0.2863
     42  CB        19.5720   24.7440  139.3370 C.3    95  SER95       0.2116
     43  OG        20.9400   24.9140  139.0040 O.3    95  SER95      -0.2180
     44  N         27.0520   20.2050  136.6870 N.3   101  SER101     -0.1217
     45  CA        27.4170   20.7580  137.9740 C.3   101  SER101      0.1889
     46  C         28.5510   19.9200  138.5500 C.2   101  SER101      0.2288
     47  O         28.6000   18.7010  138.3640 O.2   101  SER101     -0.2866
     48  CB        26.2210   20.7380  138.9320 C.3   101  SER101      0.2089
     49  OG        25.0990   21.4050  138.3760 O.3   101  SER101     -0.2183
     50  N         30.8570   21.3900  148.4460 N.3   116  LYS116     -0.1231
     51  CA        30.7050   22.5460  147.5650 C.3   116  LYS116      0.1693
     52  C         30.2380   22.1690  146.1640 C.2   116  LYS116      0.2592
     53  O         30.5300   21.0900  145.6590 O.2   116  LYS116     -0.2718
     54  CB        32.0190   23.3270  147.4800 C.3   116  LYS116      0.0285
     55  CG        32.3930   24.0400  148.7730 C.3   116  LYS116      0.0035
     56  CD        33.7830   24.6710  148.6850 C.3   116  LYS116      0.0206
     57  CE        34.0880   25.5600  149.8940 C.3   116  LYS116      0.1093
     58  NZ        33.2320   26.7870  149.9070 N.3   116  LYS116     -0.1314
     59  N         29.4960   23.0820  145.5570 N.am  117  HIS117     -0.1962
     60  CA        28.9610   22.8980  144.2220 C.3   117  HIS117      0.1787
     61  C         29.3380   24.0470  143.3070 C.2   117  HIS117      0.2620
     62  O         29.1860   25.2110  143.6650 O.2   117  HIS117     -0.2715
     63  CB        27.4520   22.8250  144.2660 C.3   117  HIS117      0.0785
     64  CG        26.9360   21.6780  145.0550 C.ar  117  HIS117      0.0821
     65  ND1       27.0140   20.3770  144.6110 N.ar  117  HIS117     -0.2267
     66  CD2       26.3460   21.6300  146.2710 C.ar  117  HIS117      0.1154
     67  CE1       26.4920   19.5740  145.5200 C.ar  117  HIS117      0.1986
     68  NE2       26.0810   20.3090  146.5380 N.ar  117  HIS117     -0.2212
     69  N         29.8090   23.7020  142.1170 N.am  118  TYR118     -0.1960
     70  CA        30.1930   24.6850  141.1320 C.3   118  TYR118      0.1771
     71  C         29.4620   24.3570  139.8480 C.2   118  TYR118      0.2619
     72  O         29.3860   23.1970  139.4560 O.2   118  TYR118     -0.2715
     73  CB        31.6900   24.6110  140.9080 C.3   118  TYR118      0.0574
     74  CG        32.5080   24.9520  142.1280 C.ar  118  TYR118     -0.0198
     75  CD1       32.7600   24.0090  143.1380 C.ar  118  TYR118     -0.0009
     76  CD2       33.0420   26.2290  142.2670 C.ar  118  TYR118     -0.0009
     77  CE1       33.5390   24.3520  144.2540 C.ar  118  TYR118      0.0417
     78  CE2       33.8030   26.5740  143.3580 C.ar  118  TYR118      0.0417
     79  CZ        34.0570   25.6440  144.3450 C.ar  118  TYR118      0.1957
     80  OH        34.8620   26.0370  145.3910 O.3   118  TYR118     -0.2866
     81  N         28.9120   25.3570  139.1760 N.am  119  LYS119     -0.1977
     82  CA        28.2120   25.0570  137.9290 C.3   119  LYS119      0.1596
     83  C         29.1410   25.2620  136.7430 C.2   119  LYS119      0.2287
     84  O         29.9150   26.2120  136.6910 O.2   119  LYS119     -0.2864
     85  CB        26.9650   25.9320  137.7950 C.3   119  LYS119      0.0298
     86  CG        27.2520   27.3930  137.9830 C.3   119  LYS119      0.0038
     87  CD        26.0060   28.1790  138.3270 C.3   119  LYS119      0.0206
     88  CE        24.9980   28.1770  137.1990 C.3   119  LYS119      0.1093
     89  NZ        24.0580   29.3210  137.3930 N.3   119  LYS119     -0.1314
     90  N         29.3990   26.2500  133.1790 N.3   121  ARG121     -0.1245
     91  CA        28.6900   26.9550  132.1460 C.3   121  ARG121      0.1563
     92  C         29.1360   26.4310  130.7970 C.2   121  ARG121      0.2260
     93  O         30.2440   25.9040  130.6530 O.2   121  ARG121     -0.2867
     94  CB        28.9550   28.4560  132.2590 C.3   121  ARG121      0.0307
     95  CG        28.5630   29.0080  133.6140 C.3   121  ARG121      0.0489
     96  CD        28.3510   30.5090  133.6070 C.3   121  ARG121      0.2205
     97  NE        27.9850   30.9590  134.9530 N.pl3 121  ARG121     -0.0865
     98  CZ        26.7410   31.1850  135.3740 C.cat 121  ARG121      0.5346
     99  NH1       25.7160   31.0190  134.5500 N.pl3 121  ARG121      0.1354
    100  NH2       26.5220   31.5560  136.6330 N.pl3 121  ARG121      0.1354
    101  N         33.4910   25.8730  131.1870 N.3   129  TYR129     -0.1227
    102  CA        34.2710   26.6550  132.1400 C.3   129  TYR129      0.1736
    103  C         33.5250   26.7930  133.4480 C.2   129  TYR129      0.2595
    104  O         32.2960   26.7630  133.4880 O.2   129  TYR129     -0.2718
    105  CB        34.6190   28.0480  131.6010 C.3   129  TYR129      0.0548
    106  CG        33.4840   29.0320  131.5510 C.ar  129  TYR129     -0.0200
    107  CD1       33.1560   29.8230  132.6660 C.ar  129  TYR129     -0.0009
    108  CD2       32.7240   29.1670  130.3830 C.ar  129  TYR129     -0.0009
    109  CE1       32.0960   30.7280  132.6180 C.ar  129  TYR129      0.0417
    110  CE2       31.6640   30.0570  130.3150 C.ar  129  TYR129      0.0417
    111  CZ        31.3490   30.8420  131.4430 C.ar  129  TYR129      0.1957
    112  OH        30.2760   31.7220  131.3960 O.3   129  TYR129     -0.2866
    113  N         34.2960   26.9010  134.5200 N.am  130  ILE130     -0.1966
    114  CA        33.7550   27.0950  135.8540 C.3   130  ILE130      0.1727
    115  C         34.0460   28.5610  136.0720 C.2   130  ILE130      0.2617
    116  O         33.2460   29.3050  136.6400 O.2   130  ILE130     -0.2715
    117  CB        34.5260   26.3140  136.9070 C.3   130  ILE130      0.0290
    118  CG1       33.8530   24.9680  137.1490 C.3   130  ILE130      0.0022
    119  CG2       34.6300   27.1200  138.1830 C.3   130  ILE130      0.0023
    120  CD1       34.0640   24.0040  136.0780 C.3   130  ILE130      0.0001
    121  N         35.2200   28.9520  135.5930 N.am  131  SER131     -0.1936
    122  CA        35.6980   30.3130  135.6910 C.3   131  SER131      0.2040
    123  C         36.0340   30.8410  134.3080 C.2   131  SER131      0.2485
    124  O         36.7820   30.2050  133.5660 O.2   131  SER131     -0.2729
    125  CB        36.9470   30.3540  136.5610 C.3   131  SER131      0.2129
    126  OG        37.6850   31.5340  136.3070 O.3   131  SER131     -0.2179
    127  N         35.4970   32.0200  133.9470 N.am  132  PRO132     -0.2715
    128  CA        35.7640   32.6130  132.6290 C.3   132  PRO132      0.1536
    129  C         37.2560   32.6990  132.3640 C.2   132  PRO132      0.2598
    130  O         37.6890   32.7960  131.2190 O.2   132  PRO132     -0.2715
    131  CB        35.1220   33.9860  132.7340 C.3   132  PRO132      0.0310
    132  CG        35.2770   34.2850  134.2000 C.3   132  PRO132      0.0237
    133  CD        34.8400   32.9990  134.8230 C.3   132  PRO132      0.0939
    134  N         38.0250   32.6370  133.4420 N.am  133  ARG133     -0.1978
    135  CA        39.4750   32.6950  133.3800 C.3   133  ARG133      0.1597
    136  C         40.0340   31.6340  132.4280 C.2   133  ARG133      0.2287
    137  O         40.8270   31.9540  131.5410 O.2   133  ARG133     -0.2864
    138  CB        40.0560   32.4840  134.7740 C.3   133  ARG133      0.0334
    139  CG        41.4710   32.9890  134.9550 C.3   133  ARG133      0.0492
    140  CD        42.0050   32.5570  136.3040 C.3   133  ARG133      0.2205
    141  NE        41.0200   32.7520  137.3690 N.pl3 133  ARG133     -0.0865
    142  CZ        41.0920   32.1750  138.5660 C.cat 133  ARG133      0.5346
    143  NH1       42.1090   31.3640  138.8490 N.pl3 133  ARG133      0.1354
    144  NH2       40.1460   32.4040  139.4720 N.pl3 133  ARG133      0.1354
    145  N         41.6370   20.8790  136.6860 N.3   146  TYR146     -0.1241
    146  CA        41.4570   21.0640  138.1270 C.3   146  TYR146      0.1605
    147  C         41.9780   19.9790  139.0550 C.2   146  TYR146      0.2264
    148  O         42.1730   20.2440  140.2470 O.2   146  TYR146     -0.2867
    149  CB        39.9930   21.3810  138.4650 C.3   146  TYR146      0.0534
    150  CG        39.5870   22.7500  137.9730 C.ar  146  TYR146     -0.0201
    151  CD1       40.0390   23.9060  138.6200 C.ar  146  TYR146     -0.0009
    152  CD2       38.8340   22.8860  136.8050 C.ar  146  TYR146     -0.0009
    153  CE1       39.7530   25.1610  138.1070 C.ar  146  TYR146      0.0417
    154  CE2       38.5430   24.1240  136.2800 C.ar  146  TYR146      0.0417
    155  CZ        39.0010   25.2660  136.9270 C.ar  146  TYR146      0.1957
    156  OH        38.7150   26.5140  136.3940 O.3   146  TYR146     -0.2866
    157  N         43.1710   25.7460  140.5730 N.3   151  ASP151     -0.1225
    158  CA        43.1210   27.0100  139.8530 C.3   151  ASP151      0.1805
    159  C         41.7750   27.6990  140.0400 C.2   151  ASP151      0.2598
    160  O         41.0160   27.9000  139.0840 O.2   151  ASP151     -0.2718
    161  CB        43.4130   26.7530  138.3670 C.3   151  ASP151      0.1424
    162  CG        43.6780   28.0270  137.5790 C.2   151  ASP151      0.3668
    163  OD1       44.1100   27.9140  136.4070 O.co2 151  ASP151     -0.2456
    164  OD2       43.4540   29.1380  138.1170 O.co2 151  ASP151     -0.2456
    165  N         41.4860   28.0560  141.2880 N.am  152  GLY152     -0.1942
    166  CA        40.2400   28.7340  141.6030 C.3   152  GLY152      0.2014
    167  C         39.4000   28.0090  142.6340 C.2   152  GLY152      0.2639
    168  O         38.8920   28.6180  143.5720 O.2   152  GLY152     -0.2714
    169  N         39.2340   26.7040  142.4620 N.am  153  LEU153     -0.1963
    170  CA        38.4440   25.9450  143.4120 C.3   153  LEU153      0.1728
    171  C         39.2000   25.9590  144.7240 C.2   153  LEU153      0.2616
    172  O         40.3910   26.2720  144.7670 O.2   153  LEU153     -0.2715
    173  CB        38.2590   24.5110  142.9360 C.3   153  LEU153      0.0311
    174  CG        37.8010   24.3530  141.4860 C.3   153  LEU153      0.0022
    175  CD1       37.7780   22.8750  141.1600 C.3   153  LEU153      0.0001
    176  CD2       36.4390   24.9870  141.2620 C.3   153  LEU153      0.0001
    177  N         38.4980   25.6280  145.7980 N.am  154  CYS154     -0.1968
    178  CA        39.1080   25.6110  147.1140 C.3   154  CYS154      0.1712
    179  C         40.1040   24.4550  147.2630 C.2   154  CYS154      0.2296
    180  O         40.9980   24.5000  148.1120 O.2   154  CYS154     -0.2864
    181  CB        38.0110   25.5400  148.1780 C.3   154  CYS154      0.0983
    182  SG        36.8230   26.9380  148.1150 S.3   154  CYS154     -0.0798
@<TRIPOS>BOND
     1   110   108   ar
     2   110   111   ar
     3   108   106   ar
     4    93    92    2
     5    92    91    1
     6   101   102    1
     7   130   129    2
     8   112   111    1
     9   111   109   ar
    10   137   136    2
    11   106   105    1
    12   106   107   ar
    13   105   102    1
    14   102   103    1
    15    91    94    1
    16    91    90    1
    17    94    95    1
    18   129   128    1
    19   129   134   am
    20   136   135    1
    21   109   107   ar
    22   128   131    1
    23   128   127    1
    24   131   132    1
    25   135   134    1
    26   135   138    1
    27   103   104    2
    28   103   113   am
    29   124   123    2
    30    96    95    1
    31    96    97    1
    32   127   123   am
    33   127   133    1
    34   132   133    1
    35   123   122    1
    36   113   114    1
    37    99    98    1
    38   138   139    1
    39    97    98    2
    40   139   140    1
    41    98   100    1
    42   121   122    1
    43   121   115   am
    44    23    24    1
    45    26    25    2
    46   122   125    1
    47    27    24    1
    48    27    28    1
    49   114   115    1
    50   114   117    1
    51   115   116    2
    52   120   118    1
    53   154   152   ar
    54   154   155   ar
    55   140   141    1
    56   126   125    1
    57   156   155    1
    58   163   162   ar
    59    15    14    2
    60    24    25    1
    61    14    13    1
    62    25    29   am
    63    41    40    2
    64   145   146    1
    65    44    45    1
    66    84    83    2
    67    83    82    1
    68   152   150   ar
    69   117   118    1
    70   117   119    1
    71   155   153   ar
    72    40    39    1
    73    88    89    1
    74    88    87    1
    75    13    12    1
    76    13    16    1
    77   141   142    2
    78   162   164   ar
    79   162   161    1
    80    85    82    1
    81    85    86    1
    82    29    30    1
    83    82    81    1
    84   150   149    1
    85   150   151   ar
    86    45    46    1
    87    45    48    1
    88    86    87    1
    89   153   151   ar
    90   146   149    1
    91   146   147    1
    92    30    31    1
    93    30    33    1
    94    31    38   am
    95    31    32    2
    96    38    39    1
    97    39    42    1
    98    47    46    2
    99   161   158    1
   100    49    48    1
   101   142   143    1
   102   142   144    1
   103    16    17    1
   104    43    42    1
   105   147   148    2
   106   160   159    2
   107    81    71   am
   108    72    71    2
   109    33    34    1
   110    17    18    1
   111    71    70    1
   112   158   159    1
   113   158   157    1
   114   159   165   am
   115    18    19    1
   116    19    20    2
   117    34    35    1
   118    73    70    1
   119    73    74    1
   120    70    69    1
   121   175   174    1
   122   176   174    1
   123   165   166    1
   124   174   173    1
   125   166   167    1
   126    20    22    1
   127    20    21    1
   128    35    37   ar
   129    35    36   ar
   130    69    61   am
   131    74    76   ar
   132    74    75   ar
   133    76    78   ar
   134   169   167   am
   135   169   170    1
   136   167   168    2
   137   173   170    1
   138    75    77   ar
   139     1     2    1
   140    61    62    2
   141    61    60    1
   142    78    79   ar
   143   170   171    1
   144     5     2    1
   145     5     6    1
   146     2     3    1
   147    60    63    1
   148    60    59    1
   149    77    79   ar
   150    63    64    1
   151    10     9    1
   152    79    80    1
   153    65    64   ar
   154    65    67   ar
   155   171   172    2
   156   171   177   am
   157     7     6    1
   158     7     8    1
   159    64    66   ar
   160     3     4    2
   161    67    68   ar
   162    59    52   am
   163     9     8    2
   164     9    11    1
   165    53    52    2
   166   177   178    1
   167    52    51    1
   168    66    68   ar
   169   178   179    1
   170   178   181    1
   171   179   180    2
   172    54    51    1
   173    54    55    1
   174    51    50    1
   175   182   181    1
   176    56    55    1
   177    56    57    1
   178    57    58    1
