@<TRIPOS>MOLECULE
tmp/1x27B00.pdb
 157 152 0 0 0
SMALL
GASTEIGER

@<TRIPOS>ATOM
      1  N         51.5890   18.5420  173.2310 N.3    72  ARG72      -0.1245
      2  CA        50.6910   19.1700  172.2770 C.3    72  ARG72       0.1563
      3  C         50.0250   20.4030  172.8540 C.2    72  ARG72       0.2260
      4  O         49.8840   21.4050  172.1570 O.2    72  ARG72      -0.2867
      5  CB        49.6190   18.1870  171.8370 C.3    72  ARG72       0.0307
      6  CG        48.4700   18.8000  171.0690 C.3    72  ARG72       0.0489
      7  CD        47.7990   17.6980  170.2610 C.3    72  ARG72       0.2205
      8  NE        46.7460   18.1610  169.3560 N.pl3  72  ARG72      -0.0865
      9  CZ        46.4630   17.5780  168.1920 C.cat  72  ARG72       0.5346
     10  NH1       47.1620   16.5180  167.7880 N.pl3  72  ARG72       0.1354
     11  NH2       45.4690   18.0360  167.4390 N.pl3  72  ARG72       0.1354
     12  N         58.1280   19.1510  167.6640 N.3    92  ARG92      -0.1245
     13  CA        58.1900   18.4140  168.9140 C.3    92  ARG92       0.1563
     14  C         58.0120   16.9290  168.6400 C.2    92  ARG92       0.2260
     15  O         57.6170   16.5380  167.5390 O.2    92  ARG92      -0.2867
     16  CB        57.0810   18.9050  169.8500 C.3    92  ARG92       0.0307
     17  CG        55.7730   19.2190  169.1160 C.3    92  ARG92       0.0489
     18  CD        54.6100   19.5220  170.0650 C.3    92  ARG92       0.2205
     19  NE        53.7520   18.3620  170.0930 N.pl3  92  ARG92      -0.0865
     20  CZ        52.5690   18.2770  169.4990 C.cat  92  ARG92       0.5346
     21  NH1       52.0560   19.3040  168.8360 N.pl3  92  ARG92       0.1354
     22  NH2       51.9320   17.1120  169.4960 N.pl3  92  ARG92       0.1354
     23  N         56.2460   13.4160  168.7010 N.3    94  SER94      -0.1202
     24  CA        54.8200   13.1170  168.6530 C.3    94  SER94       0.2020
     25  C         54.3360   12.4650  169.9420 C.2    94  SER94       0.2619
     26  O         55.0260   11.6230  170.5260 O.2    94  SER94      -0.2717
     27  CB        54.4770   12.2120  167.4690 C.3    94  SER94       0.2103
     28  OG        53.0680   12.1260  167.3070 O.3    94  SER94      -0.2182
     29  N         53.1440   12.8690  170.3790 N.am   95  GLU95      -0.1965
     30  CA        52.5410   12.3420  171.5990 C.3    95  GLU95       0.1733
     31  C         51.7570   11.0680  171.3350 C.2    95  GLU95       0.2617
     32  O         51.8140   10.1160  172.1200 O.2    95  GLU95      -0.2715
     33  CB        51.6290   13.3930  172.2300 C.3    95  GLU95       0.0429
     34  CG        52.3930   14.4950  172.9170 C.3    95  GLU95       0.1163
     35  CD        51.6040   15.1370  174.0480 C.2    95  GLU95       0.3649
     36  OE1       52.2260   15.8360  174.8830 O.co2  95  GLU95      -0.2457
     37  OE2       50.3660   14.9490  174.1050 O.co2  95  GLU95      -0.2457
     38  N         51.0420   11.0570  170.2120 N.am   96  SER96      -0.1950
     39  CA        50.2300    9.9140  169.8120 C.3    96  SER96       0.1924
     40  C         51.0780    8.8030  169.2030 C.2    96  SER96       0.2314
     41  O         50.6000    7.6870  169.0040 O.2    96  SER96      -0.2863
     42  CB        49.1690   10.3540  168.8040 C.3    96  SER96       0.2116
     43  OG        49.7760   10.9480  167.6770 O.3    96  SER96      -0.2180
     44  N         55.9260   16.0270  165.5900 N.3   102  SER102     -0.1217
     45  CA        54.7540   16.7450  165.1450 C.3   102  SER102      0.1889
     46  C         55.1000   18.1890  164.8780 C.2   102  SER102      0.2288
     47  O         55.9530   18.7710  165.5550 O.2   102  SER102     -0.2866
     48  CB        53.6410   16.6660  166.1880 C.3   102  SER102      0.2089
     49  OG        53.2160   15.3200  166.3310 O.3   102  SER102     -0.2183
     50  N         46.0740   27.1180  166.3030 N.3   116  VAL116     -0.1231
     51  CA        47.2390   26.2630  166.2690 C.3   116  VAL116      0.1692
     52  C         46.9580   24.9480  165.5970 C.2   116  VAL116      0.2592
     53  O         46.2540   24.0940  166.1370 O.2   116  VAL116     -0.2718
     54  CB        47.7940   25.9880  167.6770 C.3   116  VAL116      0.0266
     55  CG1       48.8720   24.9200  167.6150 C.3   116  VAL116      0.0020
     56  CG2       48.3850   27.2740  168.2620 C.3   116  VAL116      0.0020
     57  N         47.5300   24.7880  164.4080 N.am  117  LYS117     -0.1966
     58  CA        47.3630   23.5750  163.6190 C.3   117  LYS117      0.1728
     59  C         48.4730   22.6150  164.0250 C.2   117  LYS117      0.2616
     60  O         49.5680   23.0360  164.3940 O.2   117  LYS117     -0.2715
     61  CB        47.4730   23.9140  162.1240 C.3   117  LYS117      0.0311
     62  CG        46.4080   24.8710  161.5740 C.3   117  LYS117      0.0038
     63  CD        45.0760   24.1580  161.3500 C.3   117  LYS117      0.0206
     64  CE        44.4170   24.5080  159.9860 C.3   117  LYS117      0.1093
     65  NZ        43.7760   25.8730  159.9010 N.3   117  LYS117     -0.1314
     66  N         48.1850   21.3250  163.9810 N.am  118  HIS118     -0.1959
     67  CA        49.1850   20.3210  164.3210 C.3   118  HIS118      0.1787
     68  C         49.2970   19.3720  163.1550 C.2   118  HIS118      0.2620
     69  O         48.2920   18.8530  162.6910 O.2   118  HIS118     -0.2715
     70  CB        48.7700   19.5440  165.5630 C.3   118  HIS118      0.0785
     71  CG        48.6870   20.3910  166.7840 C.ar  118  HIS118      0.0821
     72  ND1       49.8000   20.9420  167.3820 N.ar  118  HIS118     -0.2267
     73  CD2       47.6200   20.8620  167.4670 C.ar  118  HIS118      0.1154
     74  CE1       49.4220   21.7230  168.3770 C.ar  118  HIS118      0.1986
     75  NE2       48.1030   21.6920  168.4490 N.ar  118  HIS118     -0.2212
     76  N         50.5050   19.1730  162.6520 N.am  119  TYR119     -0.1960
     77  CA        50.6810   18.2530  161.5490 C.3   119  TYR119      0.1771
     78  C         51.5890   17.1290  162.0050 C.2   119  TYR119      0.2619
     79  O         52.6180   17.3670  162.6280 O.2   119  TYR119     -0.2715
     80  CB        51.2830   18.9620  160.3340 C.3   119  TYR119      0.0574
     81  CG        50.4130   20.0730  159.7620 C.ar  119  TYR119     -0.0198
     82  CD1       50.6490   21.3990  160.0890 C.ar  119  TYR119     -0.0009
     83  CD2       49.3280   19.7930  158.9270 C.ar  119  TYR119     -0.0009
     84  CE1       49.8330   22.4190  159.6100 C.ar  119  TYR119      0.0417
     85  CE2       48.5000   20.8240  158.4420 C.ar  119  TYR119      0.0417
     86  CZ        48.7650   22.1300  158.7980 C.ar  119  TYR119      0.1957
     87  OH        47.9520   23.1590  158.3910 O.3   119  TYR119     -0.2866
     88  N         51.2010   15.9020  161.7100 N.am  120  LYS120     -0.1977
     89  CA        52.0020   14.7690  162.1050 C.3   120  LYS120      0.1596
     90  C         53.1050   14.5330  161.0890 C.2   120  LYS120      0.2287
     91  O         52.8510   14.3810  159.8970 O.2   120  LYS120     -0.2864
     92  CB        51.1190   13.5260  162.2230 C.3   120  LYS120      0.0298
     93  CG        51.3960   12.6380  163.4700 C.3   120  LYS120      0.0038
     94  CD        52.5960   11.6970  163.2740 C.3   120  LYS120      0.0206
     95  CE        52.5990   10.5550  164.2800 C.3   120  LYS120      0.1093
     96  NZ        53.5160    9.4530  163.8370 N.3   120  LYS120     -0.1314
     97  N         55.0870   12.1650  159.5380 N.3   122  ARG122     -0.1245
     98  CA        55.1280   10.7310  159.3330 C.3   122  ARG122      0.1563
     99  C         56.5450   10.2960  158.9970 C.2   122  ARG122      0.2260
    100  O         57.2630   11.0040  158.3130 O.2   122  ARG122     -0.2867
    101  CB        54.1790   10.3530  158.1920 C.3   122  ARG122      0.0307
    102  CG        52.9170   11.2140  158.1180 C.3   122  ARG122      0.0489
    103  CD        51.8070   10.5400  157.3140 C.3   122  ARG122      0.2205
    104  NE        51.2460    9.4030  158.0380 N.pl3 122  ARG122     -0.0865
    105  CZ        50.6780    8.3480  157.4600 C.cat 122  ARG122      0.5346
    106  NH1       50.5930    8.2760  156.1370 N.pl3 122  ARG122      0.1354
    107  NH2       50.2020    7.3580  158.2070 N.pl3 122  ARG122      0.1354
    108  N         55.2360   15.2850  155.5910 N.3   131  ILE131     -0.1231
    109  CA        53.9570   15.6810  156.1470 C.3   131  ILE131      0.1692
    110  C         52.9270   15.3100  155.1040 C.2   131  ILE131      0.2593
    111  O         51.8290   14.8770  155.4220 O.2   131  ILE131     -0.2718
    112  CB        53.8860   17.1920  156.3870 C.3   131  ILE131      0.0266
    113  CG1       54.6470   17.5640  157.6480 C.3   131  ILE131      0.0019
    114  CG2       52.4510   17.6320  156.4950 C.3   131  ILE131      0.0020
    115  CD1       54.5510   19.0500  157.9940 C.3   131  ILE131      0.0001
    116  N         53.2970   15.4910  153.8480 N.am  132  SER132     -0.1939
    117  CA        52.4210   15.1610  152.7430 C.3   132  SER132      0.2040
    118  C         53.1680   14.2610  151.7950 C.2   132  SER132      0.2485
    119  O         54.3130   14.5270  151.4340 O.2   132  SER132     -0.2729
    120  CB        52.0020   16.4060  151.9770 C.3   132  SER132      0.2129
    121  OG        51.5020   16.0310  150.6980 O.3   132  SER132     -0.2179
    122  N         52.5230   13.1860  151.3540 N.am  133  PRO133     -0.2715
    123  CA        53.2380   12.3090  150.4350 C.3   133  PRO133      0.1536
    124  C         53.7350   13.0450  149.1900 C.2   133  PRO133      0.2598
    125  O         54.6070   12.5420  148.4870 O.2   133  PRO133     -0.2715
    126  CB        52.2140   11.2110  150.1410 C.3   133  PRO133      0.0310
    127  CG        50.8890   11.9020  150.3380 C.3   133  PRO133      0.0237
    128  CD        51.1410   12.7300  151.5710 C.3   133  PRO133      0.0939
    129  N         53.2000   14.2340  148.9160 N.am  134  ARG134     -0.1978
    130  CA        53.6570   14.9980  147.7520 C.3   134  ARG134      0.1597
    131  C         55.1390   15.3260  147.8150 C.2   134  ARG134      0.2287
    132  O         55.8050   15.3850  146.7800 O.2   134  ARG134     -0.2864
    133  CB        52.8950   16.3150  147.6070 C.3   134  ARG134      0.0334
    134  CG        51.4700   16.1610  147.1150 C.3   134  ARG134      0.0492
    135  CD        50.8930   17.5060  146.7280 C.3   134  ARG134      0.2205
    136  NE        50.9260   18.4590  147.8320 N.pl3 134  ARG134     -0.0865
    137  CZ        50.3120   19.6370  147.8090 C.cat 134  ARG134      0.5346
    138  NH1       49.6180   19.9960  146.7300 N.pl3 134  ARG134      0.1354
    139  NH2       50.3870   20.4480  148.8600 N.pl3 134  ARG134      0.1354
    140  N         50.6080   23.0130  150.9010 N.3   153  GLY153     -0.1210
    141  CA        49.9550   22.0110  151.7160 C.3   153  GLY153      0.1956
    142  C         49.4750   22.5890  153.0260 C.2   153  GLY153      0.2612
    143  O         48.4770   22.1390  153.5890 O.2   153  GLY153     -0.2717
    144  N         50.1850   23.6040  153.5000 N.am  154  LEU154     -0.1965
    145  CA        49.8580   24.2380  154.7590 C.3   154  LEU154      0.1728
    146  C         49.1310   25.5590  154.5790 C.2   154  LEU154      0.2616
    147  O         49.2030   26.1860  153.5210 O.2   154  LEU154     -0.2715
    148  CB        51.1380   24.4530  155.5610 C.3   154  LEU154      0.0311
    149  CG        52.0650   23.2370  155.6490 C.3   154  LEU154      0.0022
    150  CD1       53.1590   23.5480  156.6430 C.3   154  LEU154      0.0001
    151  CD2       51.3050   21.9950  156.0640 C.3   154  LEU154      0.0001
    152  N         48.4170   25.9710  155.6180 N.am  155  CYS155     -0.1968
    153  CA        47.6860   27.2270  155.5780 C.3   155  CYS155      0.1712
    154  C         48.7160   28.3470  155.4630 C.2   155  CYS155      0.2296
    155  O         48.5670   29.2560  154.6460 O.2   155  CYS155     -0.2864
    156  CB        46.8630   27.4130  156.8630 C.3   155  CYS155      0.0983
    157  SG        45.9200   25.9350  157.4170 S.3   155  CYS155     -0.0798
@<TRIPOS>BOND
     1   135   134    1
     2   135   136    1
     3   138   137    1
     4   132   131    2
     5   134   133    1
     6   133   130    1
     7   130   131    1
     8   130   129    1
     9   137   136    2
    10   137   139    1
    11   125   124    2
    12   129   124   am
    13   124   123    1
    14   126   127    1
    15   126   123    1
    16   127   128    1
    17   123   122    1
    18   121   120    1
    19   140   141    1
    20   122   128    1
    21   122   118   am
    22   119   118    2
    23   141   142    1
    24   118   117    1
    25   120   117    1
    26   117   116    1
    27   142   144   am
    28   142   143    2
    29   144   145    1
    30   147   146    2
    31   116   110   am
    32   146   145    1
    33   146   152   am
    34   155   154    2
    35   145   148    1
    36   110   111    2
    37   110   109    1
    38   154   153    1
    39   148   149    1
    40   153   152    1
    41   153   156    1
    42   108   109    1
    43   149   151    1
    44   149   150    1
    45   106   105    1
    46   109   112    1
    47   112   114    1
    48   112   113    1
    49   156   157    1
    50   103   104    1
    51   103   102    1
    52   105   104    2
    53   105   107    1
    54   113   115    1
    55   102   101    1
    56   101    98    1
    57   100    99    2
    58    87    86    1
    59    85    86   ar
    60    85    83   ar
    61    86    84   ar
    62    83    81   ar
    63    99    98    1
    64    98    97    1
    65    84    82   ar
    66    81    82   ar
    67    81    80    1
    68    91    90    2
    69    65    64    1
    70    64    63    1
    71    80    77    1
    72    90    89    1
    73    63    62    1
    74    77    78    1
    75    77    76    1
    76    62    61    1
    77    88    78   am
    78    88    89    1
    79    78    79    2
    80    89    92    1
    81    61    58    1
    82    92    93    1
    83    76    68   am
    84    69    68    2
    85    68    67    1
    86    94    93    1
    87    94    95    1
    88    58    59    1
    89    58    57    1
    90    96    95    1
    91    66    59   am
    92    66    67    1
    93    59    60    2
    94    67    70    1
    95    57    52   am
    96    46    45    1
    97    46    47    2
    98    45    44    1
    99    45    48    1
   100    70    71    1
   101    52    53    2
   102    52    51    1
   103    48    49    1
   104    51    50    1
   105    51    54    1
   106    71    72   ar
   107    71    73   ar
   108    28    27    1
   109    72    74   ar
   110    11     9    1
   111    73    75   ar
   112    27    24    1
   113    15    14    2
   114    55    54    1
   115    12    13    1
   116    43    42    1
   117    54    56    1
   118    10     9    1
   119     9     8    2
   120    74    75   ar
   121    14    13    1
   122    24    23    1
   123    24    25    1
   124    42    39    1
   125    21    20    1
   126    13    16    1
   127    41    40    2
   128    17    16    1
   129    17    18    1
   130    40    39    1
   131     8     7    1
   132    22    20    1
   133    20    19    2
   134    39    38    1
   135    25    29   am
   136    25    26    2
   137    18    19    1
   138    38    31   am
   139     7     6    1
   140    29    30    1
   141     6     5    1
   142    31    30    1
   143    31    32    2
   144    30    33    1
   145     5     2    1
   146     4     3    2
   147    33    34    1
   148     2     3    1
   149     2     1    1
   150    34    35    1
   151    35    37   ar
   152    35    36   ar
