@<TRIPOS>MOLECULE
tmp/1x27A00.pdb
 171 166 0 0 0
SMALL
GASTEIGER

@<TRIPOS>ATOM
      1  N         60.3180   40.7310  102.9230 N.3    71  ARG71      -0.1245
      2  CA        61.1600   39.8890  103.7620 C.3    71  ARG71       0.1563
      3  C         62.5630   40.4630  103.8810 C.2    71  ARG71       0.2260
      4  O         63.1680   40.4570  104.9520 O.2    71  ARG71      -0.2867
      5  CB        61.2450   38.4820  103.1710 C.3    71  ARG71       0.0307
      6  CG        62.2310   37.5720  103.8710 C.3    71  ARG71       0.0489
      7  CD        62.4090   36.2620  103.1240 C.3    71  ARG71       0.2205
      8  NE        63.4830   35.4710  103.7060 N.pl3  71  ARG71      -0.0865
      9  CZ        63.3530   34.6900  104.7750 C.cat  71  ARG71       0.5346
     10  NH1       62.1770   34.5820  105.3810 N.pl3  71  ARG71       0.1354
     11  NH2       64.4090   34.0360  105.2540 N.pl3  71  ARG71       0.1354
     12  N         54.8100   41.4850  108.9760 N.3    91  ARG91      -0.1245
     13  CA        54.4940   41.9380  107.6420 C.3    91  ARG91       0.1563
     14  C         53.5730   40.9650  106.9450 C.2    91  ARG91       0.2260
     15  O         53.4680   39.8190  107.3590 O.2    91  ARG91      -0.2867
     16  CB        55.7800   42.0900  106.8460 C.3    91  ARG91       0.0307
     17  CG        56.6810   40.8900  106.9460 C.3    91  ARG91       0.0489
     18  CD        57.0530   40.3450  105.5540 C.3    91  ARG91       0.2205
     19  NE        57.8610   39.1140  105.6390 N.pl3  91  ARG91      -0.0865
     20  CZ        59.0220   39.0310  106.2830 C.cat  91  ARG91       0.5346
     21  NH1       59.5210   40.0930  106.8990 N.pl3  91  ARG91       0.1354
     22  NH2       59.6900   37.8960  106.2980 N.pl3  91  ARG91       0.1354
     23  N         52.6720   38.3250  104.6350 N.3    93  SER93      -0.1202
     24  CA        53.5550   37.2980  104.0680 C.3    93  SER93       0.2020
     25  C         53.7180   37.3310  102.5480 C.2    93  SER93       0.2619
     26  O         52.8000   37.7130  101.8200 O.2    93  SER93      -0.2717
     27  CB        53.0820   35.9000  104.4780 C.3    93  SER93       0.2103
     28  OG        53.9000   34.9020  103.8880 O.3    93  SER93      -0.2182
     29  N         54.8920   36.9210  102.0760 N.am   94  GLU94      -0.1965
     30  CA        55.1510   36.8900  100.6450 C.3    94  GLU94       0.1733
     31  C         55.5280   35.4800  100.2050 C.2    94  GLU94       0.2617
     32  O         56.1450   35.2870   99.1560 O.2    94  GLU94      -0.2715
     33  CB        56.2680   37.8630  100.2790 C.3    94  GLU94       0.0429
     34  CG        57.6020   37.5410  100.9170 C.3    94  GLU94       0.1163
     35  CD        58.7070   38.4420  100.4100 C.2    94  GLU94       0.3649
     36  OE1       58.5010   39.6810  100.3790 O.co2  94  GLU94      -0.2457
     37  OE2       59.7830   37.9120  100.0460 O.co2  94  GLU94      -0.2457
     38  N         55.1470   34.5030  101.0220 N.am   95  SER95      -0.1950
     39  CA        55.4110   33.0900  100.7560 C.3    95  SER95       0.1924
     40  C         54.1290   32.2850  100.9500 C.2    95  SER95       0.2314
     41  O         54.1160   31.0650  100.7900 O.2    95  SER95      -0.2863
     42  CB        56.4880   32.5580  101.7120 C.3    95  SER95       0.2116
     43  OG        56.6370   31.1500  101.5940 O.3    95  SER95      -0.2180
     44  N         54.0950   37.2600  108.5650 N.3   101  SER101     -0.1217
     45  CA        55.3820   36.7920  109.0240 C.3   101  SER101      0.1889
     46  C         55.8860   37.6690  110.1590 C.2   101  SER101      0.2288
     47  O         55.5830   38.8640  110.2430 O.2   101  SER101     -0.2866
     48  CB        56.3700   36.7820  107.8650 C.3   101  SER101      0.2089
     49  OG        56.1650   35.6320  107.0750 O.3   101  SER101     -0.2183
     50  N         68.7720   38.3560  111.7810 N.3   115  VAL115     -0.1231
     51  CA        67.3400   38.6040  111.7480 C.3   115  VAL115      0.1692
     52  C         66.6190   37.3060  111.4390 C.2   115  VAL115      0.2592
     53  O         66.9000   36.6640  110.4360 O.2   115  VAL115     -0.2718
     54  CB        66.9910   39.6380  110.6640 C.3   115  VAL115      0.0266
     55  CG1       65.5070   39.6210  110.3830 C.3   115  VAL115      0.0020
     56  CG2       67.4340   41.0160  111.1100 C.3   115  VAL115      0.0020
     57  N         65.6910   36.9180  112.3030 N.am  116  LYS116     -0.1966
     58  CA        64.9470   35.6880  112.0870 C.3   116  LYS116      0.1728
     59  C         63.5380   35.9920  111.6050 C.2   116  LYS116      0.2616
     60  O         62.9900   37.0630  111.8700 O.2   116  LYS116     -0.2715
     61  CB        64.9120   34.8670  113.3780 C.3   116  LYS116      0.0311
     62  CG        66.3000   34.4750  113.8790 C.3   116  LYS116      0.0038
     63  CD        66.2500   33.6880  115.1800 C.3   116  LYS116      0.0206
     64  CE        67.6400   33.2330  115.6040 C.3   116  LYS116      0.1093
     65  NZ        67.6160   32.4580  116.8800 N.3   116  LYS116     -0.1314
     66  N         62.9660   35.0460  110.8730 N.am  117  HIS117     -0.1959
     67  CA        61.6170   35.2010  110.3470 C.3   117  HIS117      0.1787
     68  C         60.7910   33.9980  110.7730 C.2   117  HIS117      0.2620
     69  O         61.2200   32.8570  110.6290 O.2   117  HIS117     -0.2715
     70  CB        61.6620   35.3200  108.8220 C.3   117  HIS117      0.0785
     71  CG        62.4920   36.4710  108.3390 C.ar  117  HIS117      0.0821
     72  ND1       61.9420   37.6150  107.8010 N.ar  117  HIS117     -0.2267
     73  CD2       63.8310   36.6710  108.3570 C.ar  117  HIS117      0.1154
     74  CE1       62.9070   38.4690  107.5100 C.ar  117  HIS117      0.1986
     75  NE2       64.0630   37.9210  107.8380 N.ar  117  HIS117     -0.2212
     76  N         59.6190   34.2600  111.3360 N.am  118  TYR118     -0.1960
     77  CA        58.7490   33.1850  111.7720 C.3   118  TYR118      0.1771
     78  C         57.4520   33.2810  111.0080 C.2   118  TYR118      0.2619
     79  O         56.8700   34.3470  110.8950 O.2   118  TYR118     -0.2715
     80  CB        58.4710   33.2660  113.2720 C.3   118  TYR118      0.0574
     81  CG        59.7090   33.1480  114.1060 C.ar  118  TYR118     -0.0198
     82  CD1       60.5640   34.2300  114.2640 C.ar  118  TYR118     -0.0009
     83  CD2       60.0660   31.9420  114.6880 C.ar  118  TYR118     -0.0009
     84  CE1       61.7510   34.1190  114.9780 C.ar  118  TYR118      0.0417
     85  CE2       61.2560   31.8190  115.4060 C.ar  118  TYR118      0.0417
     86  CZ        62.0940   32.9130  115.5430 C.ar  118  TYR118      0.1957
     87  OH        63.2830   32.7890  116.2280 O.3   118  TYR118     -0.2866
     88  N         57.0090   32.1560  110.4720 N.am  119  LYS119     -0.1977
     89  CA        55.7800   32.1120  109.7100 C.3   119  LYS119      0.1596
     90  C         54.6060   32.1030  110.6830 C.2   119  LYS119      0.2287
     91  O         54.5400   31.2480  111.5730 O.2   119  LYS119     -0.2864
     92  CB        55.7710   30.8500  108.8610 C.3   119  LYS119      0.0298
     93  CG        55.1110   30.9940  107.5020 C.3   119  LYS119      0.0038
     94  CD        53.6330   31.3500  107.6180 C.3   119  LYS119      0.0206
     95  CE        53.4380   32.8270  107.3770 C.3   119  LYS119      0.1093
     96  NZ        54.0610   33.2380  106.0790 N.3   119  LYS119     -0.1314
     97  N         51.1740   31.1320  111.0880 N.3   121  ARG121     -0.1245
     98  CA        50.1290   30.3150  110.5050 C.3   121  ARG121      0.1563
     99  C         48.7480   30.7770  110.9170 C.2   121  ARG121      0.2260
    100  O         48.5300   31.1940  112.0600 O.2   121  ARG121     -0.2867
    101  CB        50.3140   28.8450  110.9020 C.3   121  ARG121      0.0307
    102  CG        51.7350   28.3480  110.6760 C.3   121  ARG121      0.0489
    103  CD        51.9320   26.9030  111.0890 C.3   121  ARG121      0.2205
    104  NE        53.3580   26.5430  111.1090 N.pl3 121  ARG121     -0.0865
    105  CZ        54.1710   26.5870  110.0520 C.cat 121  ARG121      0.5346
    106  NH1       53.7080   26.9760  108.8680 N.pl3 121  ARG121      0.1354
    107  NH2       55.4490   26.2470  110.1840 N.pl3 121  ARG121      0.1354
    108  N         52.1380   30.6270  115.8630 N.3   130  ILE130     -0.1231
    109  CA        53.4740   30.3770  115.3390 C.3   130  ILE130      0.1692
    110  C         53.8510   28.9750  115.8180 C.2   130  ILE130      0.2593
    111  O         54.5720   28.2360  115.1630 O.2   130  ILE130     -0.2718
    112  CB        54.5040   31.3770  115.8890 C.3   130  ILE130      0.0266
    113  CG1       54.0840   32.7980  115.5210 C.3   130  ILE130      0.0019
    114  CG2       55.8820   31.0970  115.2630 C.3   130  ILE130      0.0020
    115  CD1       55.1140   33.8470  115.8550 C.3   130  ILE130      0.0001
    116  N         53.3290   28.6180  116.9770 N.am  131  SER131     -0.1939
    117  CA        53.5910   27.3280  117.5680 C.3   131  SER131      0.2040
    118  C         52.2270   26.7260  117.8790 C.2   131  SER131      0.2485
    119  O         51.3820   27.3600  118.5000 O.2   131  SER131     -0.2729
    120  CB        54.4000   27.4990  118.8640 C.3   131  SER131      0.2129
    121  OG        54.6660   26.2660  119.4980 O.3   131  SER131     -0.2179
    122  N         51.9780   25.4970  117.4290 N.am  132  PRO132     -0.2715
    123  CA        50.6690   24.9290  117.7400 C.3   132  PRO132      0.1536
    124  C         50.4410   24.8950  119.2410 C.2   132  PRO132      0.2598
    125  O         49.3060   24.8210  119.6840 O.2   132  PRO132     -0.2715
    126  CB        50.7440   23.5430  117.1130 C.3   132  PRO132      0.0310
    127  CG        52.2180   23.2360  117.1340 C.3   132  PRO132      0.0237
    128  CD        52.8020   24.5430  116.6740 C.3   132  PRO132      0.0939
    129  N         51.5120   24.9680  120.0300 N.am  133  ARG133     -0.1978
    130  CA        51.3450   24.9360  121.4820 C.3   133  ARG133      0.1597
    131  C         50.4580   26.0790  121.9790 C.2   133  ARG133      0.2287
    132  O         49.7490   25.9250  122.9680 O.2   133  ARG133     -0.2864
    133  CB        52.6930   25.0120  122.2150 C.3   133  ARG133      0.0334
    134  CG        53.8120   24.1400  121.6270 C.3   133  ARG133      0.0492
    135  CD        54.9590   23.9290  122.6160 C.3   133  ARG133      0.2205
    136  NE        55.4510   25.1900  123.1880 N.pl3 133  ARG133     -0.0865
    137  CZ        56.3920   25.2780  124.1280 C.cat 133  ARG133      0.5346
    138  NH1       56.9660   24.1810  124.6230 N.pl3 133  ARG133      0.1354
    139  NH2       56.7580   26.4690  124.5750 N.pl3 133  ARG133      0.1354
    140  N         54.0830   37.2140  123.1620 N.3   146  TYR146     -0.1241
    141  CA        55.5260   37.1540  122.9690 C.3   146  TYR146      0.1605
    142  C         56.3400   38.3670  123.3950 C.2   146  TYR146      0.2264
    143  O         57.5610   38.3390  123.2890 O.2   146  TYR146     -0.2867
    144  CB        55.8400   36.8110  121.5240 C.3   146  TYR146      0.0534
    145  CG        55.3740   35.4320  121.1360 C.ar  146  TYR146     -0.0201
    146  CD1       56.1950   34.3130  121.3330 C.ar  146  TYR146     -0.0009
    147  CD2       54.1210   35.2430  120.5570 C.ar  146  TYR146     -0.0009
    148  CE1       55.7890   33.0380  120.9540 C.ar  146  TYR146      0.0417
    149  CE2       53.6950   33.9750  120.1730 C.ar  146  TYR146      0.0417
    150  CZ        54.5330   32.8730  120.3680 C.ar  146  TYR146      0.1957
    151  OH        54.1200   31.6160  119.9460 O.3   146  TYR146     -0.2866
    152  N         58.2730   32.6760  124.8460 N.3   151  ASP151     -0.1225
    153  CA        57.8750   31.2810  124.9150 C.3   151  ASP151      0.1805
    154  C         58.0400   30.5180  123.6030 C.2   151  ASP151      0.2598
    155  O         57.0760   30.2770  122.8770 O.2   151  ASP151     -0.2718
    156  CB        56.4330   31.2120  125.4110 C.3   151  ASP151      0.1424
    157  CG        55.8120   29.8690  125.1910 C.2   151  ASP151      0.3668
    158  OD1       56.4720   28.8550  125.5120 O.co2 151  ASP151     -0.2456
    159  OD2       54.6630   29.8310  124.7020 O.co2 151  ASP151     -0.2456
    160  N         59.2760   30.1280  123.3190 N.am  152  GLY152     -0.1942
    161  CA        59.5510   29.3990  122.1010 C.3   152  GLY152      0.2014
    162  C         60.6030   30.1040  121.2750 C.2   152  GLY152      0.2638
    163  O         61.4610   29.4600  120.6900 O.2   152  GLY152     -0.2714
    164  N         60.5390   31.4270  121.2130 N.am  153  LEU153     -0.1977
    165  CA        61.5250   32.1740  120.4500 C.3   153  LEU153      0.1596
    166  C         62.7510   32.3520  121.3340 C.2   153  LEU153      0.2287
    167  O         62.6280   32.7110  122.5010 O.2   153  LEU153     -0.2864
    168  CB        60.9750   33.5480  120.0580 C.3   153  LEU153      0.0297
    169  CG        59.5740   33.6220  119.4370 C.3   153  LEU153      0.0022
    170  CD1       59.1810   35.0710  119.2620 C.3   153  LEU153      0.0001
    171  CD2       59.5330   32.8860  118.1070 C.3   153  LEU153      0.0001
@<TRIPOS>BOND
     1    32    31    2
     2    37    35   ar
     3    31    30    1
     4    31    38   am
     5    33    30    1
     6    33    34    1
     7    36    35   ar
     8    35    34    1
     9    30    29    1
    10    39    40    1
    11    39    38    1
    12    39    42    1
    13    41    40    2
    14    43    42    1
    15    26    25    2
    16    29    25   am
    17    25    24    1
    18     1     2    1
    19     7     8    1
    20     7     6    1
    21     5     2    1
    22     5     6    1
    23     8     9    2
    24     2     3    1
    25     3     4    2
    26    28    27    1
    27    24    27    1
    28    24    23    1
    29     9    11    1
    30     9    10    1
    31    18    19    1
    32    18    17    1
    33    19    20    2
    34    96    95    1
    35    20    22    1
    36    20    21    1
    37    16    17    1
    38    16    13    1
    39    14    15    2
    40    14    13    1
    41    49    48    1
    42    95    94    1
    43    93    94    1
    44    93    92    1
    45    74    72   ar
    46    74    75   ar
    47    13    12    1
    48    72    71   ar
    49    75    73   ar
    50    48    45    1
    51    71    73   ar
    52    71    70    1
    53    44    45    1
    54    70    67    1
    55    92    89    1
    56   106   105    1
    57    45    46    1
    58    89    88    1
    59    89    90    1
    60   105   107    1
    61   105   104    2
    62    46    47    2
    63    67    68    1
    64    67    66    1
    65    55    54    1
    66    53    52    2
    67    88    78   am
    68    98   101    1
    69    98    99    1
    70    98    97    1
    71    69    68    2
    72    54    56    1
    73    54    51    1
    74   102   101    1
    75   102   103    1
    76    90    91    2
    77    68    76   am
    78    66    59   am
    79    79    78    2
    80    99   100    2
    81    78    77    1
    82   103   104    1
    83    76    77    1
    84    52    51    1
    85    52    57   am
    86    59    60    2
    87    59    58    1
    88    51    50    1
    89    77    80    1
    90    58    57    1
    91    58    61    1
    92    80    81    1
    93    61    62    1
    94    62    63    1
    95    81    82   ar
    96    81    83   ar
    97    82    84   ar
    98    83    85   ar
    99    84    86   ar
   100   111   110    2
   101    63    64    1
   102   114   112    1
   103   109   110    1
   104   109   108    1
   105   109   112    1
   106    85    86   ar
   107   113   115    1
   108   113   112    1
   109    86    87    1
   110    64    65    1
   111   110   116   am
   112   128   127    1
   113   128   122    1
   114   116   117    1
   115   126   127    1
   116   126   123    1
   117   122   123    1
   118   122   118   am
   119   117   118    1
   120   117   120    1
   121   123   124    1
   122   118   119    2
   123   171   169    1
   124   120   121    1
   125   124   125    2
   126   124   129   am
   127   170   169    1
   128   169   168    1
   129   151   150    1
   130   129   130    1
   131   168   165    1
   132   149   150   ar
   133   149   147   ar
   134   150   148   ar
   135   165   164    1
   136   165   166    1
   137   147   145   ar
   138   163   162    2
   139   148   146   ar
   140   145   146   ar
   141   145   144    1
   142   164   162   am
   143   162   161    1
   144   166   167    2
   145   130   131    1
   146   130   133    1
   147   144   141    1
   148   134   133    1
   149   134   135    1
   150   131   132    2
   151   161   160    1
   152   135   136    1
   153   155   154    2
   154   141   140    1
   155   141   142    1
   156   136   137    2
   157   143   142    2
   158   160   154   am
   159   154   153    1
   160   137   139    1
   161   137   138    1
   162   159   157   ar
   163   152   153    1
   164   153   156    1
   165   157   156    1
   166   157   158   ar
