@<TRIPOS>MOLECULE
tmp/1x29B01.pdb
 215 205 0 0 0
SMALL
GASTEIGER

@<TRIPOS>ATOM
      1  N         26.9790  106.5400   -3.0370 N.3    11  ASP11      -0.1239
      2  CA        28.2650  106.7280   -3.6930 C.3    11  ASP11       0.1674
      3  C         28.1420  107.9850   -4.5430 C.2    11  ASP11       0.2266
      4  O         27.1480  108.1680   -5.2420 O.2    11  ASP11      -0.2867
      5  CB        28.5720  105.5370   -4.5930 C.3    11  ASP11       0.1410
      6  CG        29.9900  105.5540   -5.1180 C.2    11  ASP11       0.3668
      7  OD1       30.8980  105.0760   -4.4020 O.co2  11  ASP11      -0.2456
      8  OD2       30.2000  106.0480   -6.2470 O.co2  11  ASP11      -0.2456
      9  N         29.4260  108.6960   -7.2370 N.3    13  ILE13      -0.1231
     10  CA        29.4280  108.3880   -8.6640 C.3    13  ILE13       0.1692
     11  C         28.3060  107.4180   -9.0180 C.2    13  ILE13       0.2591
     12  O         27.3740  107.7720   -9.7470 O.2    13  ILE13      -0.2718
     13  CB        30.7620  107.7450   -9.1250 C.3    13  ILE13       0.0266
     14  CG1       31.9450  108.6590   -8.7850 C.3    13  ILE13       0.0019
     15  CG2       30.7100  107.4680  -10.6320 C.3    13  ILE13       0.0020
     16  CD1       31.8260  110.0540   -9.3330 C.3    13  ILE13       0.0001
     17  N         28.4050  106.1940   -8.5050 N.am   14  LEU14      -0.1980
     18  CA        27.4030  105.1740   -8.7800 C.3    14  LEU14       0.1596
     19  C         26.0250  105.5700   -8.2540 C.2    14  LEU14       0.2287
     20  O         25.0050  105.1000   -8.7580 O.2    14  LEU14      -0.2864
     21  CB        27.8360  103.8260   -8.1880 C.3    14  LEU14       0.0297
     22  CG        29.1020  103.2200   -8.8110 C.3    14  LEU14       0.0022
     23  CD1       29.3860  101.8570   -8.2060 C.3    14  LEU14       0.0001
     24  CD2       28.9230  103.0840  -10.3140 C.3    14  LEU14       0.0001
     25  N         28.7210  108.8840  -14.6810 N.3    33  ILE33      -0.1231
     26  CA        29.6240  107.7450  -14.7730 C.3    33  ILE33       0.1692
     27  C         30.4600  107.7260  -16.0510 C.2    33  ILE33       0.2593
     28  O         29.9540  107.9730  -17.1470 O.2    33  ILE33      -0.2718
     29  CB        28.8490  106.3990  -14.6790 C.3    33  ILE33       0.0266
     30  CG1       28.3990  106.1440  -13.2390 C.3    33  ILE33       0.0019
     31  CG2       29.7380  105.2430  -15.1330 C.3    33  ILE33       0.0020
     32  CD1       27.3940  107.1470  -12.7120 C.3    33  ILE33       0.0001
     33  N         31.7390  107.3990  -15.8900 N.am   34  GLY34      -0.1942
     34  CA        32.6520  107.3400  -17.0140 C.3    34  GLY34       0.2014
     35  C         32.4410  106.1430  -17.9210 C.2    34  GLY34       0.2638
     36  O         33.2180  105.1770  -17.9070 O.2    34  GLY34      -0.2714
     37  N         31.3770  106.2040  -18.7150 N.am   35  VAL35      -0.1977
     38  CA        31.0550  105.1450  -19.6600 C.3    35  VAL35       0.1596
     39  C         30.9620  105.7500  -21.0560 C.2    35  VAL35       0.2287
     40  O         30.3760  106.8170  -21.2410 O.2    35  VAL35      -0.2864
     41  CB        29.7260  104.4750  -19.2950 C.3    35  VAL35       0.0276
     42  CG1       29.1770  103.7160  -20.4930 C.3    35  VAL35       0.0022
     43  CG2       29.9400  103.5290  -18.1100 C.3    35  VAL35       0.0022
     44  N         38.0120   93.6000  -12.2580 N.3   102  GLY102     -0.1210
     45  CA        38.0310   95.0240  -12.5070 C.3   102  GLY102      0.1956
     46  C         39.2530   95.6860  -11.9100 C.2   102  GLY102      0.2612
     47  O         40.0190   95.0630  -11.1570 O.2   102  GLY102     -0.2717
     48  N         39.4490   96.9540  -12.2570 N.am  103  GLY103     -0.1942
     49  CA        40.5730   97.6830  -11.7130 C.3   103  GLY103      0.2014
     50  C         40.3640   97.8860  -10.2250 C.2   103  GLY103      0.2639
     51  O         41.3230   97.8830   -9.4490 O.2   103  GLY103     -0.2714
     52  N         39.1100   98.0700   -9.8190 N.am  104  THR104     -0.1950
     53  CA        38.8100   98.2750   -8.4070 C.3   104  THR104      0.1897
     54  C         39.3140   97.0650   -7.6230 C.2   104  THR104      0.2313
     55  O         39.9520   97.2230   -6.5800 O.2   104  THR104     -0.2863
     56  CB        37.2900   98.4540   -8.1550 C.3   104  THR104      0.1794
     57  OG1       36.8020   99.5710   -8.9050 O.3   104  THR104     -0.2208
     58  CG2       37.0220   98.7060   -6.6810 C.3   104  THR104      0.0378
     59  N         42.9480   97.0760   -7.2030 N.3   107  LEU107     -0.1245
     60  CA        43.3610   98.0140   -6.1660 C.3   107  LEU107      0.1561
     61  C         43.1850   97.4140   -4.7730 C.2   107  LEU107      0.2260
     62  O         44.0560   97.5600   -3.9150 O.2   107  LEU107     -0.2867
     63  CB        42.5700   99.3260   -6.2790 C.3   107  LEU107      0.0270
     64  CG        42.8730  100.2420   -7.4860 C.3   107  LEU107      0.0019
     65  CD1       41.8270  101.3550   -7.5750 C.3   107  LEU107      0.0001
     66  CD2       44.2780  100.8480   -7.3600 C.3   107  LEU107      0.0001
     67  N         39.9740  110.0400   -7.9780 N.3   130  TRP130     -0.1241
     68  CA        38.7860  109.1970   -8.0080 C.3   130  TRP130      0.1605
     69  C         38.4130  108.9790   -6.5390 C.2   130  TRP130      0.2264
     70  O         39.2170  108.4970   -5.7600 O.2   130  TRP130     -0.2867
     71  CB        39.1290  107.8700   -8.6850 C.3   130  TRP130      0.0550
     72  CG        37.9980  106.8890   -8.8350 C.ar  130  TRP130      0.0003
     73  CD1       36.7780  107.1210   -9.3990 C.ar  130  TRP130      0.0946
     74  CD2       38.0280  105.4920   -8.5060 C.ar  130  TRP130      0.0152
     75  NE1       36.0480  105.9570   -9.4510 N.ar  130  TRP130     -0.2442
     76  CE2       36.7890  104.9410   -8.9090 C.ar  130  TRP130      0.0810
     77  CE3       38.9830  104.6510   -7.9120 C.ar  130  TRP130      0.0012
     78  CZ2       36.4750  103.5810   -8.7390 C.ar  130  TRP130      0.0191
     79  CZ3       38.6710  103.2950   -7.7410 C.ar  130  TRP130      0.0001
     80  CH2       37.4240  102.7760   -8.1550 C.ar  130  TRP130      0.0015
     81  N         36.7620  106.7730   -4.8840 N.3   132  ASN132     -0.1225
     82  CA        36.8760  105.4280   -4.3340 C.3   132  ASN132      0.1785
     83  C         38.2700  105.0300   -3.8480 C.2   132  ASN132      0.2597
     84  O         38.4050  104.0910   -3.0560 O.2   132  ASN132     -0.2718
     85  CB        36.3580  104.4060   -5.3490 C.3   132  ASN132      0.1169
     86  CG        35.8050  103.1660   -4.6830 C.2   132  ASN132      0.2627
     87  OD1       35.1160  103.2540   -3.6720 O.2   132  ASN132     -0.2716
     88  ND2       36.0930  102.0040   -5.2540 N.am  132  ASN132     -0.0877
     89  N         39.2990  105.7400   -4.3100 N.am  133  HIS133     -0.1975
     90  CA        40.6720  105.4580   -3.8910 C.3   133  HIS133      0.1656
     91  C         40.8170  105.4470   -2.3700 C.2   133  HIS133      0.2291
     92  O         41.4270  104.5430   -1.7990 O.2   133  HIS133     -0.2864
     93  CB        41.6320  106.4930   -4.4790 C.3   133  HIS133      0.0771
     94  CG        42.0640  106.1820   -5.8750 C.ar  133  HIS133      0.0820
     95  ND1       42.3680  107.1610   -6.7940 N.ar  133  HIS133     -0.2267
     96  CD2       42.2370  104.9990   -6.5110 C.ar  133  HIS133      0.1154
     97  CE1       42.7060  106.5950   -7.9400 C.ar  133  HIS133      0.1986
     98  NE2       42.6350  105.2830   -7.7950 N.ar  133  HIS133     -0.2212
     99  N         48.1860  108.0730  -11.4690 N.3   178  HIS178     -0.1241
    100  CA        47.2800  107.6350  -12.5230 C.3   178  HIS178      0.1621
    101  C         48.1690  107.5170  -13.7550 C.2   178  HIS178      0.2264
    102  O         48.8970  108.4470  -14.0900 O.2   178  HIS178     -0.2867
    103  CB        46.1600  108.6540  -12.7760 C.3   178  HIS178      0.0745
    104  CG        45.3340  108.9720  -11.5660 C.ar  178  HIS178      0.0817
    105  ND1       43.9760  109.2000  -11.6340 N.ar  178  HIS178     -0.2268
    106  CD2       45.6790  109.1440  -10.2680 C.ar  178  HIS178      0.1154
    107  CE1       43.5210  109.5010  -10.4310 C.ar  178  HIS178      0.1986
    108  NE2       44.5350  109.4740   -9.5840 N.ar  178  HIS178     -0.2212
    109  N         41.9210  111.2220  -13.3550 N.3   183  ASN183     -0.1240
    110  CA        40.5140  111.3360  -12.9890 C.3   183  ASN183      0.1653
    111  C         40.5120  112.0770  -11.6630 C.2   183  ASN183      0.2266
    112  O         41.0920  111.5980  -10.6940 O.2   183  ASN183     -0.2867
    113  CB        39.9230  109.9330  -12.8220 C.3   183  ASN183      0.1155
    114  CG        38.4450  109.9420  -12.4770 C.2   183  ASN183      0.2627
    115  OD1       37.8660  110.9730  -12.1350 O.2   183  ASN183     -0.2716
    116  ND2       37.8300  108.7730  -12.5500 N.am  183  ASN183     -0.0877
    117  N         47.7080  103.3900  -11.1480 N.3   211  ASP211     -0.1239
    118  CA        46.3180  103.0500  -11.4460 C.3   211  ASP211      0.1674
    119  C         46.2320  103.3490  -12.9380 C.2   211  ASP211      0.2266
    120  O         46.3200  104.5010  -13.3550 O.2   211  ASP211     -0.2867
    121  CB        45.3410  103.9460  -10.6810 C.3   211  ASP211      0.1410
    122  CG        43.8890  103.5530  -10.9150 C.2   211  ASP211      0.3668
    123  OD1       43.5810  103.0100  -11.9980 O.co2 211  ASP211     -0.2456
    124  OD2       43.0540  103.7970  -10.0220 O.co2 211  ASP211     -0.2456
    125  N         43.6860  102.8620  -15.6280 N.3   213  ALA213     -0.1231
    126  CA        42.3500  102.4960  -16.0750 C.3   213  ALA213      0.1694
    127  C         41.9590  103.0300  -17.4580 C.2   213  ALA213      0.2592
    128  O         40.8830  102.7010  -17.9630 O.2   213  ALA213     -0.2718
    129  CB        41.3270  102.9640  -15.0360 C.3   213  ALA213      0.0304
    130  N         42.8360  103.8200  -18.0770 N.am  214  TYR214     -0.1976
    131  CA        42.5290  104.4420  -19.3730 C.3   214  TYR214      0.1639
    132  C         43.5790  104.3240  -20.4740 C.2   214  TYR214      0.2290
    133  O         43.6350  105.1730  -21.3710 O.2   214  TYR214     -0.2864
    134  CB        42.2420  105.9240  -19.1420 C.3   214  TYR214      0.0560
    135  CG        41.1040  106.1560  -18.1830 C.ar  214  TYR214     -0.0198
    136  CD1       39.7820  106.0030  -18.5950 C.ar  214  TYR214     -0.0009
    137  CD2       41.3470  106.4880  -16.8490 C.ar  214  TYR214     -0.0009
    138  CE1       38.7250  106.1750  -17.7010 C.ar  214  TYR214      0.0417
    139  CE2       40.2990  106.6600  -15.9520 C.ar  214  TYR214      0.0417
    140  CZ        38.9900  106.5020  -16.3880 C.ar  214  TYR214      0.1957
    141  OH        37.9450  106.6780  -15.5120 O.3   214  TYR214     -0.2866
    142  N         42.8930   98.3440  -15.6280 N.3   243  SER243     -0.1217
    143  CA        41.5080   97.9870  -15.9250 C.3   243  SER243      0.1889
    144  C         41.2680   97.8590  -17.4240 C.2   243  SER243      0.2288
    145  O         41.8840   98.5630  -18.2310 O.2   243  SER243     -0.2866
    146  CB        40.5580   99.0490  -15.3610 C.3   243  SER243      0.2089
    147  OG        39.2020   98.7310  -15.6390 O.3   243  SER243     -0.2183
    148  N         37.9520   97.6890  -18.3320 N.3   245  SER245     -0.1202
    149  CA        36.5670   98.1340  -18.3800 C.3   245  SER245      0.2020
    150  C         36.2830   99.0960  -19.5270 C.2   245  SER245      0.2618
    151  O         35.3530   98.8750  -20.3030 O.2   245  SER245     -0.2717
    152  CB        36.1730   98.8000  -17.0590 C.3   245  SER245      0.2103
    153  OG        36.0380   97.8460  -16.0280 O.3   245  SER245     -0.2182
    154  N         37.0900  100.1500  -19.6430 N.am  246  LYS246     -0.1979
    155  CA        36.8750  101.1540  -20.6860 C.3   246  LYS246      0.1596
    156  C         37.4470  100.8650  -22.0720 C.2   246  LYS246      0.2287
    157  O         36.7140  100.9310  -23.0570 O.2   246  LYS246     -0.2864
    158  CB        37.3890  102.5180  -20.2300 C.3   246  LYS246      0.0298
    159  CG        36.7690  103.0210  -18.9400 C.3   246  LYS246      0.0038
    160  CD        37.3320  102.2690  -17.7540 C.3   246  LYS246      0.0206
    161  CE        36.7930  102.8340  -16.4690 C.3   246  LYS246      0.1093
    162  NZ        35.3140  102.9040  -16.5390 N.3   246  LYS246     -0.1314
    163  N         32.8340   96.8540  -19.0140 N.3   251  TYR251     -0.1241
    164  CA        32.5010   97.3230  -17.6740 C.3   251  TYR251      0.1605
    165  C         31.9650   96.2790  -16.6970 C.2   251  TYR251      0.2264
    166  O         32.5980   95.9910  -15.6890 O.2   251  TYR251     -0.2867
    167  CB        31.4780   98.4570  -17.7680 C.3   251  TYR251      0.0534
    168  CG        31.7830   99.4810  -18.8370 C.ar  251  TYR251     -0.0201
    169  CD1       32.7110  100.5000  -18.6170 C.ar  251  TYR251     -0.0009
    170  CD2       31.1360   99.4320  -20.0680 C.ar  251  TYR251     -0.0009
    171  CE1       32.9830  101.4540  -19.6020 C.ar  251  TYR251      0.0417
    172  CE2       31.4000  100.3780  -21.0620 C.ar  251  TYR251      0.0417
    173  CZ        32.3210  101.3850  -20.8190 C.ar  251  TYR251      0.1957
    174  OH        32.5680  102.3260  -21.7880 O.3   251  TYR251     -0.2866
    175  N         33.8130   92.8530  -15.2850 N.3   254  ARG254     -0.1245
    176  CA        34.8730   92.9950  -14.2820 C.3   254  ARG254      0.1563
    177  C         36.2160   92.3790  -14.6800 C.2   254  ARG254      0.2260
    178  O         36.6110   91.3310  -14.1710 O.2   254  ARG254     -0.2867
    179  CB        34.3890   92.3990  -12.9540 C.3   254  ARG254      0.0307
    180  CG        32.9400   92.7850  -12.5870 C.3   254  ARG254      0.0489
    181  CD        32.7030   94.3020  -12.6680 C.3   254  ARG254      0.2205
    182  NE        33.4880   95.0590  -11.6860 N.pl3 254  ARG254     -0.0865
    183  CZ        34.2320   96.1270  -11.9780 C.cat 254  ARG254      0.5346
    184  NH1       34.3070   96.5750  -13.2270 N.pl3 254  ARG254      0.1354
    185  NH2       34.8880   96.7600  -11.0180 N.pl3 254  ARG254      0.1354
    186  N         38.2010  110.7860  -20.8170 N.3   347  MET347     -0.1230
    187  CA        36.7660  110.8680  -21.0210 C.3   347  MET347      0.1702
    188  C         36.1180  112.0530  -20.3250 C.2   347  MET347      0.2592
    189  O         35.0320  112.4800  -20.6990 O.2   347  MET347     -0.2718
    190  CB        36.1070  109.5750  -20.5420 C.3   347  MET347      0.0401
    191  CG        36.6700  108.3280  -21.1960 C.3   347  MET347      0.0596
    192  SD        35.6530  106.8880  -20.8490 S.3   347  MET347     -0.1393
    193  CE        35.8530  106.7830  -19.1230 C.3   347  MET347      0.0692
    194  N         36.7990  112.6030  -19.3330 N.am  348  PHE348     -0.1976
    195  CA        36.2370  113.6970  -18.5690 C.3   348  PHE348      0.1639
    196  C         36.7630  115.0770  -18.8940 C.2   348  PHE348      0.2290
    197  O         37.5950  115.2740  -19.7830 O.2   348  PHE348     -0.2864
    198  CB        36.4570  113.4420  -17.0760 C.3   348  PHE348      0.0560
    199  CG        36.1090  112.0520  -16.6470 C.ar  348  PHE348     -0.0200
    200  CD1       34.7800  111.6310  -16.6160 C.ar  348  PHE348     -0.0042
    201  CD2       37.1110  111.1480  -16.3090 C.ar  348  PHE348     -0.0042
    202  CE1       34.4560  110.3200  -16.2550 C.ar  348  PHE348     -0.0003
    203  CE2       36.8020  109.8400  -15.9470 C.ar  348  PHE348     -0.0003
    204  CZ        35.4750  109.4210  -15.9190 C.ar  348  PHE348     -0.0000
    205  N         32.8860  117.3580  -12.4390 N.3   374  ARG374     -0.1245
    206  CA        33.4260  116.4640  -13.4550 C.3   374  ARG374      0.1563
    207  C         32.3310  116.0970  -14.4450 C.2   374  ARG374      0.2260
    208  O         31.2340  115.7020  -14.0530 O.2   374  ARG374     -0.2867
    209  CB        33.9730  115.1860  -12.8200 C.3   374  ARG374      0.0307
    210  CG        34.7650  114.3290  -13.7900 C.3   374  ARG374      0.0489
    211  CD        35.0410  112.9470  -13.2240 C.3   374  ARG374      0.2205
    212  NE        33.8600  112.0860  -13.2570 N.pl3 374  ARG374     -0.0865
    213  CZ        33.8610  110.7980  -12.9240 C.cat 374  ARG374      0.5346
    214  NH1       32.7370  110.0920  -12.9900 N.pl3 374  ARG374      0.1354
    215  NH2       34.9830  110.2150  -12.5220 N.pl3 374  ARG374      0.1354
@<TRIPOS>BOND
     1   157   156    2
     2   156   155    1
     3   174   173    1
     4   133   132    2
     5    40    39    2
     6   191   192    1
     7   191   190    1
     8   172   173   ar
     9   172   170   ar
    10    39    38    1
    11   187   186    1
    12   187   190    1
    13   187   188    1
    14   192   193    1
    15   173   171   ar
    16   189   188    2
    17   155   158    1
    18   155   154    1
    19    42    41    1
    20   132   131    1
    21   188   194   am
    22   151   150    2
    23   158   159    1
    24   170   168   ar
    25   197   196    2
    26    38    41    1
    27    38    37    1
    28   154   150   am
    29   171   169   ar
    30   150   149    1
    31   131   134    1
    32   131   130    1
    33   194   195    1
    34    41    43    1
    35   134   135    1
    36   163   164    1
    37   159   160    1
    38   196   195    1
    39   168   169   ar
    40   168   167    1
    41    37    35   am
    42   136   135   ar
    43   136   138   ar
    44   195   198    1
    45   149   148    1
    46   149   152    1
    47   145   144    2
    48   135   137   ar
    49   130   127   am
    50   128   127    2
    51    35    36    2
    52    35    34    1
    53   167   164    1
    54   160   161    1
    55   138   140   ar
    56   164   165    1
    57   127   126    1
    58   144   143    1
    59    28    27    2
    60   198   199    1
    61   152   153    1
    62    34    33    1
    63   137   139   ar
    64   165   166    2
    65   199   200   ar
    66   199   201   ar
    67   200   202   ar
    68   162   161    1
    69   140   139   ar
    70   140   141    1
    71   201   203   ar
    72   202   204   ar
    73   126   125    1
    74   126   129    1
    75    27    33   am
    76    27    26    1
    77   203   204   ar
    78   143   142    1
    79   143   146    1
    80   147   146    1
    81   175   176    1
    82    31    29    1
    83    26    25    1
    84    26    29    1
    85   177   176    1
    86   177   178    2
    87    29    30    1
    88   207   208    2
    89   207   206    1
    90   176   179    1
    91   102   101    2
    92   210   211    1
    93   210   209    1
    94   101   100    1
    95   206   209    1
    96   206   205    1
    97   120   119    2
    98   109   110    1
    99   212   211    1
   100   212   213    2
   101    30    32    1
   102   184   183    1
   103   214   213    1
   104   110   113    1
   105   110   111    1
   106   179   180    1
   107   119   118    1
   108   213   215    1
   109   113   114    1
   110   103   100    1
   111   103   104    1
   112   181   180    1
   113   181   182    1
   114   116   114   am
   115   100    99    1
   116    45    44    1
   117    45    46    1
   118   114   115    2
   119    48    46   am
   120    48    49    1
   121   123   122   ar
   122   183   182    2
   123   183   185    1
   124    46    47    2
   125    49    50    1
   126   111   112    2
   127   105   104   ar
   128   105   107   ar
   129   104   106   ar
   130   118   117    1
   131   118   121    1
   132   122   121    1
   133   122   124   ar
   134    15    13    1
   135   107   108   ar
   136    24    22    1
   137   106   108   ar
   138    50    52   am
   139    50    51    2
   140    52    53    1
   141    12    11    2
   142    75    73   ar
   143    75    76   ar
   144    73    72   ar
   145    16    14    1
   146    13    14    1
   147    13    10    1
   148    11    10    1
   149    11    17   am
   150    76    78   ar
   151    76    74   ar
   152    57    56    1
   153    72    71    1
   154    72    74   ar
   155    22    23    1
   156    22    21    1
   157    18    17    1
   158    18    19    1
   159    18    21    1
   160    20    19    2
   161    78    80   ar
   162    71    68    1
   163    10     9    1
   164    74    77   ar
   165    53    56    1
   166    53    54    1
   167    80    79   ar
   168    56    58    1
   169    68    67    1
   170    68    69    1
   171    97    98   ar
   172    97    95   ar
   173    77    79   ar
   174    98    96   ar
   175    54    55    2
   176    65    64    1
   177    64    66    1
   178    64    63    1
   179    59    60    1
   180    95    94   ar
   181    69    70    2
   182    96    94   ar
   183    63    60    1
   184     8     6   ar
   185    60    61    1
   186    94    93    1
   187    85    86    1
   188    85    82    1
   189    88    86   am
   190     4     3    2
   191     6     5    1
   192     6     7   ar
   193    81    82    1
   194    61    62    2
   195    86    87    2
   196     5     2    1
   197     3     2    1
   198    93    90    1
   199    82    83    1
   200    89    90    1
   201    89    83   am
   202    90    91    1
   203    83    84    2
   204     2     1    1
   205    91    92    2
