@<TRIPOS>MOLECULE
tmp/1x2bA00.pdb
 218 216 0 0 0
SMALL
GASTEIGER

@<TRIPOS>ATOM
      1  N         35.2610   -4.6400   -5.3040 N.3    39  PHE39      -0.1227
      2  CA        34.1970   -3.6690   -5.5210 C.3    39  PHE39       0.1736
      3  C         33.0330   -4.2920   -6.2850 C.2    39  PHE39       0.2595
      4  O         33.2220   -4.8210   -7.3810 O.2    39  PHE39      -0.2718
      5  CB        34.7460   -2.4780   -6.3190 C.3    39  PHE39       0.0547
      6  CG        33.7110   -1.4440   -6.6610 C.ar   39  PHE39      -0.0202
      7  CD1       33.3590   -0.4600   -5.7390 C.ar   39  PHE39      -0.0042
      8  CD2       33.0660   -1.4720   -7.8950 C.ar   39  PHE39      -0.0042
      9  CE1       32.3780    0.4800   -6.0430 C.ar   39  PHE39      -0.0003
     10  CE2       32.0830   -0.5400   -8.2120 C.ar   39  PHE39      -0.0003
     11  CZ        31.7360    0.4420   -7.2830 C.ar   39  PHE39      -0.0000
     12  N         31.8360   -4.2350   -5.7110 N.am   40  ILE40      -0.1966
     13  CA        30.6520   -4.7770   -6.3750 C.3    40  ILE40       0.1727
     14  C         29.8170   -3.5970   -6.8860 C.2    40  ILE40       0.2616
     15  O         29.2920   -2.8140   -6.0850 O.2    40  ILE40      -0.2715
     16  CB        29.7710   -5.5940   -5.4120 C.3    40  ILE40       0.0290
     17  CG1       30.6330   -6.4080   -4.4520 C.3    40  ILE40       0.0022
     18  CG2       28.8950   -6.5450   -6.2020 C.3    40  ILE40       0.0023
     19  CD1       31.2990   -7.5880   -5.0730 C.3    40  ILE40       0.0001
     20  N         29.7010   -3.4560   -8.2050 N.am   41  HIS41      -0.1959
     21  CA        28.9200   -2.3640   -8.7750 C.3    41  HIS41       0.1787
     22  C         27.4160   -2.6230   -8.6130 C.2    41  HIS41       0.2621
     23  O         26.9970   -3.7330   -8.2740 O.2    41  HIS41      -0.2715
     24  CB        29.2830   -2.1550  -10.2520 C.3    41  HIS41       0.0785
     25  CG        28.8080   -3.2420  -11.1670 C.ar   41  HIS41       0.0821
     26  ND1       29.6700   -3.9870  -11.9450 N.ar   41  HIS41      -0.2267
     27  CD2       27.5600   -3.6770  -11.4670 C.ar   41  HIS41       0.1154
     28  CE1       28.9730   -4.8330  -12.6860 C.ar   41  HIS41       0.1986
     29  NE2       27.6910   -4.6660  -12.4150 N.ar   41  HIS41      -0.2212
     30  N         26.6070   -1.6010   -8.8570 N.am   42  GLY42      -0.1940
     31  CA        25.1720   -1.7560   -8.6960 C.3    42  GLY42       0.2014
     32  C         24.3950   -2.0970   -9.9470 C.2    42  GLY42       0.2639
     33  O         24.9650   -2.5470  -10.9390 O.2    42  GLY42      -0.2714
     34  N         23.0830   -1.8790   -9.8970 N.am   43  GLY43      -0.1954
     35  CA        22.2260   -2.1760  -11.0340 C.3    43  GLY43       0.1869
     36  C         21.1230   -3.1410  -10.6360 C.2    43  GLY43       0.2309
     37  O         20.1300   -2.7180  -10.0530 O.2    43  GLY43      -0.2863
     38  N         24.9500   -2.4500  -13.9570 N.3    46  GLY46      -0.1225
     39  CA        25.4660   -1.0930  -13.9540 C.3    46  GLY46       0.1811
     40  C         26.8610   -0.9230  -14.5200 C.2    46  GLY46       0.2280
     41  O         27.1170    0.0340  -15.2520 O.2    46  GLY46      -0.2866
     42  N         35.5490    4.4320   -9.6520 N.3    52  HIS52      -0.1241
     43  CA        35.4060    3.4890   -8.5410 C.3    52  HIS52       0.1621
     44  C         36.7730    3.1050   -7.9790 C.2    52  HIS52       0.2264
     45  O         36.8780    2.6440   -6.8460 O.2    52  HIS52      -0.2867
     46  CB        34.6600    2.2160   -8.9760 C.3    52  HIS52       0.0745
     47  CG        33.2520    2.4520   -9.4400 C.ar   52  HIS52       0.0817
     48  ND1       32.3540    3.2330   -8.7420 N.ar   52  HIS52      -0.2268
     49  CD2       32.5780    1.9790  -10.5160 C.ar   52  HIS52       0.1154
     50  CE1       31.1900    3.2320   -9.3680 C.ar   52  HIS52       0.1986
     51  NE2       31.2990    2.4790  -10.4480 N.ar   52  HIS52      -0.2212
     52  N         27.5120   -1.0330   -3.0540 N.3   109  GLY109     -0.1210
     53  CA        26.3690   -0.1730   -2.8430 C.3   109  GLY109      0.1956
     54  C         25.1880   -0.5630   -3.7150 C.2   109  GLY109      0.2613
     55  O         25.3710   -1.0590   -4.8280 O.2   109  GLY109     -0.2717
     56  N         23.9810   -0.3490   -3.1990 N.am  110  SER110     -0.1938
     57  CA        22.7580   -0.6430   -3.9330 C.3   110  SER110      0.2055
     58  C         22.6800   -2.1200   -4.2870 C.2   110  SER110      0.2643
     59  O         22.7480   -2.9600   -3.3950 O.2   110  SER110     -0.2714
     60  CB        22.7240    0.2110   -5.1880 C.3   110  SER110      0.2130
     61  OG        21.4080    0.6650   -5.4260 O.3   110  SER110     -0.2179
     62  N         22.5180   -2.4590   -5.5660 N.am  111  TRP111     -0.1973
     63  CA        22.4870   -3.8780   -5.9170 C.3   111  TRP111      0.1640
     64  C         23.7970   -4.4830   -5.4130 C.2   111  TRP111      0.2290
     65  O         23.8480   -5.6460   -5.0220 O.2   111  TRP111     -0.2864
     66  CB        22.3600   -4.0870   -7.4270 C.3   111  TRP111      0.0576
     67  CG        22.8940   -5.4130   -7.8820 C.ar  111  TRP111      0.0006
     68  CD1       24.0610   -5.6370   -8.5600 C.ar  111  TRP111      0.0946
     69  CD2       22.3140   -6.7050   -7.6490 C.ar  111  TRP111      0.0152
     70  NE1       24.2430   -6.9840   -8.7620 N.ar  111  TRP111     -0.2442
     71  CE2       23.1860   -7.6630   -8.2130 C.ar  111  TRP111      0.0810
     72  CE3       21.1420   -7.1460   -7.0190 C.ar  111  TRP111      0.0012
     73  CZ2       22.9230   -9.0420   -8.1660 C.ar  111  TRP111      0.0191
     74  CZ3       20.8800   -8.5210   -6.9730 C.ar  111  TRP111      0.0001
     75  CH2       21.7700   -9.4480   -7.5440 C.ar  111  TRP111      0.0015
     76  N         26.3540    0.4240    1.2130 N.3   133  ARG133     -0.1245
     77  CA        25.6810    1.6920    0.9850 C.3   133  ARG133      0.1563
     78  C         24.3690    1.4970    0.2280 C.2   133  ARG133      0.2260
     79  O         24.2670    0.6390   -0.6470 O.2   133  ARG133     -0.2867
     80  CB        26.6190    2.6250    0.2170 C.3   133  ARG133      0.0307
     81  CG        26.0710    4.0160   -0.0590 C.3   133  ARG133      0.0489
     82  CD        25.2550    4.0620   -1.3320 C.3   133  ARG133      0.2205
     83  NE        26.0160    3.5190   -2.4500 N.pl3 133  ARG133     -0.0865
     84  CZ        25.5710    3.4290   -3.6990 C.cat 133  ARG133      0.5346
     85  NH1       24.3530    3.8650   -4.0080 N.pl3 133  ARG133      0.1354
     86  NH2       26.3330    2.8580   -4.6270 N.pl3 133  ARG133      0.1354
     87  N         19.7040   -2.5800   -0.2890 N.3   136  PHE136     -0.1241
     88  CA        18.6860   -3.1340   -1.1700 C.3   136  PHE136      0.1605
     89  C         18.6920   -4.6350   -0.8710 C.2   136  PHE136      0.2264
     90  O         19.6940   -5.3060   -1.1150 O.2   136  PHE136     -0.2867
     91  CB        19.1140   -2.8730   -2.6210 C.3   136  PHE136      0.0534
     92  CG        18.0860   -3.2440   -3.6570 C.ar  136  PHE136     -0.0203
     93  CD1       18.4940   -3.6520   -4.9270 C.ar  136  PHE136     -0.0042
     94  CD2       16.7280   -3.1290   -3.3960 C.ar  136  PHE136     -0.0042
     95  CE1       17.5570   -3.9360   -5.9220 C.ar  136  PHE136     -0.0003
     96  CE2       15.7850   -3.4090   -4.3780 C.ar  136  PHE136     -0.0003
     97  CZ        16.1960   -3.8130   -5.6450 C.ar  136  PHE136     -0.0000
     98  N          9.7280    1.0760   -5.8380 N.3   146  TYR146     -0.1227
     99  CA        10.4020    1.7160   -6.9500 C.3   146  TYR146      0.1736
    100  C          9.8430    1.5150   -8.3420 C.2   146  TYR146      0.2595
    101  O         10.0810    2.3460   -9.2180 O.2   146  TYR146     -0.2718
    102  CB        11.8700    1.3100   -6.9410 C.3   146  TYR146      0.0548
    103  CG        12.7870    2.2870   -7.6300 C.ar  146  TYR146     -0.0200
    104  CD1       12.6620    3.6620   -7.4160 C.ar  146  TYR146     -0.0009
    105  CD2       13.8460    1.8350   -8.4140 C.ar  146  TYR146     -0.0009
    106  CE1       13.5770    4.5630   -7.9630 C.ar  146  TYR146      0.0417
    107  CE2       14.7680    2.7170   -8.9570 C.ar  146  TYR146      0.0417
    108  CZ        14.6350    4.0800   -8.7270 C.ar  146  TYR146      0.1957
    109  OH        15.5870    4.9470   -9.2240 O.3   146  TYR146     -0.2866
    110  N          9.0910    0.4400   -8.5590 N.am  147  TYR147     -0.1976
    111  CA         8.5700    0.1730   -9.8920 C.3   147  TYR147      0.1639
    112  C          7.0710   -0.0010  -10.0310 C.2   147  TYR147      0.2290
    113  O          6.5920   -0.3550  -11.1110 O.2   147  TYR147     -0.2864
    114  CB         9.2780   -1.0550  -10.4730 C.3   147  TYR147      0.0560
    115  CG        10.7500   -0.8270  -10.7310 C.ar  147  TYR147     -0.0198
    116  CD1       11.1740    0.0090  -11.7730 C.ar  147  TYR147     -0.0009
    117  CD2       11.7180   -1.4310   -9.9320 C.ar  147  TYR147     -0.0009
    118  CE1       12.5320    0.2360  -12.0150 C.ar  147  TYR147      0.0417
    119  CE2       13.0810   -1.2150  -10.1600 C.ar  147  TYR147      0.0417
    120  CZ        13.4790   -0.3810  -11.2040 C.ar  147  TYR147      0.1957
    121  OH        14.8200   -0.1710  -11.4380 O.3   147  TYR147     -0.2866
    122  N         15.4700    5.6350  -13.5550 N.3   201  GLU201     -0.1245
    123  CA        16.4170    5.4560  -12.4750 C.3   201  GLU201      0.1567
    124  C         17.4840    6.5440  -12.4700 C.2   201  GLU201      0.2260
    125  O         17.8460    7.0730  -11.4150 O.2   201  GLU201     -0.2867
    126  CB        17.0790    4.0880  -12.5750 C.3   201  GLU201      0.0388
    127  CG        18.1120    3.8540  -11.4900 C.3   201  GLU201      0.1160
    128  CD        18.4860    2.3890  -11.3450 C.2   201  GLU201      0.3649
    129  OE1       19.4520    2.1030  -10.6160 O.co2 201  GLU201     -0.2457
    130  OE2       17.8080    1.5290  -11.9450 O.co2 201  GLU201     -0.2457
    131  N         18.0990    9.0870   -8.7010 N.3   205  VAL205     -0.1245
    132  CA        19.1600    8.5660   -7.8600 C.3   205  VAL205      0.1561
    133  C         19.9580    9.6510   -7.1080 C.2   205  VAL205      0.2260
    134  O         20.7550    9.3360   -6.2200 O.2   205  VAL205     -0.2867
    135  CB        20.0810    7.6440   -8.7260 C.3   205  VAL205      0.0252
    136  CG1       20.6440    8.4130   -9.8990 C.3   205  VAL205      0.0019
    137  CG2       21.1940    7.0700   -7.8900 C.3   205  VAL205      0.0019
    138  N         22.3350    7.7220  -18.9230 N.3   216  PHE216     -0.1241
    139  CA        21.5590    6.5020  -18.6980 C.3   216  PHE216      0.1605
    140  C         20.7120    6.2230  -19.9370 C.2   216  PHE216      0.2264
    141  O         20.0320    5.1980  -20.0210 O.2   216  PHE216     -0.2867
    142  CB        20.6210    6.6560  -17.4990 C.3   216  PHE216      0.0534
    143  CG        21.2880    6.4690  -16.1700 C.ar  216  PHE216     -0.0203
    144  CD1       22.1570    7.4330  -15.6660 C.ar  216  PHE216     -0.0042
    145  CD2       21.0260    5.3370  -15.4080 C.ar  216  PHE216     -0.0042
    146  CE1       22.7550    7.2730  -14.4120 C.ar  216  PHE216     -0.0003
    147  CE2       21.6140    5.1650  -14.1600 C.ar  216  PHE216     -0.0003
    148  CZ        22.4830    6.1390  -13.6580 C.ar  216  PHE216     -0.0000
    149  N         21.4690   -2.5170  -19.1350 N.3   225  PHE225     -0.1241
    150  CA        21.0430   -2.1250  -17.8000 C.3   225  PHE225      0.1605
    151  C         19.5960   -2.5740  -17.5600 C.2   225  PHE225      0.2264
    152  O         19.2990   -3.2650  -16.5830 O.2   225  PHE225     -0.2867
    153  CB        21.1630   -0.6030  -17.6660 C.3   225  PHE225      0.0534
    154  CG        20.9740   -0.0850  -16.2710 C.ar  225  PHE225     -0.0203
    155  CD1       19.9440    0.8010  -15.9830 C.ar  225  PHE225     -0.0042
    156  CD2       21.8610   -0.4300  -15.2570 C.ar  225  PHE225     -0.0042
    157  CE1       19.7990    1.3430  -14.7050 C.ar  225  PHE225     -0.0003
    158  CE2       21.7280    0.1070  -13.9730 C.ar  225  PHE225     -0.0003
    159  CZ        20.6940    0.9970  -13.6980 C.ar  225  PHE225     -0.0000
    160  N         18.5340   -5.6390  -15.1410 N.3   229  GLU229     -0.1245
    161  CA        17.7980   -5.2410  -13.9410 C.3   229  GLU229      0.1567
    162  C         16.4260   -5.9040  -13.9220 C.2   229  GLU229      0.2260
    163  O         16.0390   -6.5530  -12.9450 O.2   229  GLU229     -0.2867
    164  CB        17.6090   -3.7290  -13.8930 C.3   229  GLU229      0.0388
    165  CG        18.6680   -2.9980  -13.1180 C.3   229  GLU229      0.1160
    166  CD        18.2760   -1.5610  -12.8310 C.2   229  GLU229      0.3649
    167  OE1       19.0160   -0.8870  -12.0870 O.co2 229  GLU229     -0.2457
    168  OE2       17.2280   -1.1060  -13.3480 O.co2 229  GLU229     -0.2457
    169  N         14.7950   -8.7030  -11.2920 N.3   233  PHE233     -0.1241
    170  CA        13.6100   -8.3500  -10.5300 C.3   233  PHE233      0.1605
    171  C         12.4600   -9.2750  -10.8800 C.2   233  PHE233      0.2264
    172  O         11.6800   -9.6630  -10.0070 O.2   233  PHE233     -0.2867
    173  CB        13.2210   -6.8920  -10.7900 C.3   233  PHE233      0.0534
    174  CG        14.3030   -5.9110  -10.4390 C.ar  233  PHE233     -0.0203
    175  CD1       15.3860   -6.3000   -9.6500 C.ar  233  PHE233     -0.0042
    176  CD2       14.2530   -4.6010  -10.9020 C.ar  233  PHE233     -0.0042
    177  CE1       16.3960   -5.4090   -9.3340 C.ar  233  PHE233     -0.0003
    178  CE2       15.2660   -3.6990  -10.5850 C.ar  233  PHE233     -0.0003
    179  CZ        16.3380   -4.1060   -9.8010 C.ar  233  PHE233     -0.0000
    180  N         15.5790    5.3710   -4.4140 N.3   267  ALA267     -0.1231
    181  CA        15.6410    4.0670   -5.0770 C.3   267  ALA267      0.1694
    182  C         15.5090    2.9570   -4.0320 C.2   267  ALA267      0.2592
    183  O         14.8290    1.9560   -4.2560 O.2   267  ALA267     -0.2718
    184  CB        16.9710    3.9220   -5.8510 C.3   267  ALA267      0.0304
    185  N         16.1690    3.1550   -2.8950 N.am  268  CYS268     -0.1970
    186  CA        16.1470    2.2090   -1.7880 C.3   268  CYS268      0.1712
    187  C         15.8170    2.9910   -0.5210 C.2   268  CYS268      0.2296
    188  O         16.5920    3.8440   -0.0940 O.2   268  CYS268     -0.2864
    189  CB        17.5150    1.5400   -1.6430 C.3   268  CYS268      0.0983
    190  SG        18.1180    0.7680   -3.1620 S.3   268  CYS268     -0.0798
    191  N         20.3930    8.7430   -3.2430 N.3   293  HIS293     -0.1226
    192  CA        20.8870    7.3780   -3.3850 C.3   293  HIS293      0.1752
    193  C         22.3520    7.2190   -3.8110 C.2   293  HIS293      0.2597
    194  O         23.0920    6.4150   -3.2380 O.2   293  HIS293     -0.2718
    195  CB        20.0120    6.6530   -4.4040 C.3   293  HIS293      0.0759
    196  CG        20.4100    5.2330   -4.6440 C.ar  293  HIS293      0.0818
    197  ND1       20.2790    4.2530   -3.6860 N.ar  293  HIS293     -0.2268
    198  CD2       20.9150    4.6210   -5.7420 C.ar  293  HIS293      0.1154
    199  CE1       20.6820    3.0970   -4.1830 C.ar  293  HIS293      0.1986
    200  NE2       21.0720    3.2930   -5.4280 N.ar  293  HIS293     -0.2212
    201  N         22.7450    7.9830   -4.8280 N.am  294  SER294     -0.1938
    202  CA        24.0810    7.9090   -5.4180 C.3   294  SER294      0.2055
    203  C         25.2880    7.9610   -4.4750 C.2   294  SER294      0.2643
    204  O         25.3200    8.7320   -3.5120 O.2   294  SER294     -0.2714
    205  CB        24.2110    8.9850   -6.4930 C.3   294  SER294      0.2130
    206  OG        25.3230    8.7210   -7.3240 O.3   294  SER294     -0.2179
    207  N         26.2870    7.1360   -4.7740 N.am  295  TYR295     -0.1973
    208  CA        27.4950    7.0640   -3.9610 C.3   295  TYR295      0.1639
    209  C         28.2370    8.3970   -3.9080 C.2   295  TYR295      0.2290
    210  O         28.8780    8.7020   -2.9100 O.2   295  TYR295     -0.2864
    211  CB        28.4340    5.9720   -4.4940 C.3   295  TYR295      0.0560
    212  CG        29.3410    6.4250   -5.6240 C.ar  295  TYR295     -0.0198
    213  CD1       30.6700    6.7760   -5.3790 C.ar  295  TYR295     -0.0009
    214  CD2       28.8610    6.5360   -6.9270 C.ar  295  TYR295     -0.0009
    215  CE1       31.5010    7.2280   -6.4070 C.ar  295  TYR295      0.0417
    216  CE2       29.6800    6.9880   -7.9640 C.ar  295  TYR295      0.0417
    217  CZ        31.0000    7.3320   -7.6970 C.ar  295  TYR295      0.1957
    218  OH        31.8110    7.7750   -8.7210 O.3   295  TYR295     -0.2866
@<TRIPOS>BOND
     1   141   140    2
     2   140   139    1
     3   149   150    1
     4   138   139    1
     5   139   142    1
     6   150   153    1
     7   150   151    1
     8   153   154    1
     9   151   152    2
    10   142   143    1
    11   154   155   ar
    12   154   156   ar
    13   143   144   ar
    14   143   145   ar
    15   155   157   ar
    16   144   146   ar
    17   145   147   ar
    18   156   158   ar
    19    41    40    2
    20   160   161    1
    21   157   159   ar
    22    40    39    1
    23   146   148   ar
    24   147   148   ar
    25   158   159   ar
    26    38    39    1
    27   161   162    1
    28   161   164    1
    29   162   163    2
    30   164   165    1
    31   122   123    1
    32   168   166   ar
    33   165   166    1
    34   166   167   ar
    35    28    29   ar
    36    28    26   ar
    37   126   123    1
    38   126   127    1
    39   123   124    1
    40   124   125    2
    41    29    27   ar
    42   118   116   ar
    43   118   120   ar
    44   130   128   ar
    45    26    25   ar
    46   116   115   ar
    47   127   128    1
    48    27    25   ar
    49   121   120    1
    50   128   129   ar
    51   169   170    1
    52   120   119   ar
    53    25    24    1
    54   113   112    2
    55    35    36    1
    56    35    34    1
    57    33    32    2
    58   176   178   ar
    59   176   174   ar
    60   171   170    1
    61   171   172    2
    62   173   170    1
    63   173   174    1
    64   115   114    1
    65   115   117   ar
    66    36    37    2
    67   178   179   ar
    68    49    51   ar
    69    49    47   ar
    70   114   111    1
    71    51    50   ar
    72   174   175   ar
    73    24    21    1
    74   119   117   ar
    75   112   111    1
    76    32    34   am
    77    32    31    1
    78   136   135    1
    79   111   110    1
    80   179   177   ar
    81    42    43    1
    82   175   177   ar
    83    47    46    1
    84    47    48   ar
    85    50    48   ar
    86   109   108    1
    87   101   100    2
    88    46    43    1
    89   107   108   ar
    90   107   105   ar
    91    30    31    1
    92    30    22   am
    93    21    22    1
    94    21    20    1
    95    70    68   ar
    96    70    71   ar
    97   108   106   ar
    98   135   137    1
    99   135   132    1
   100   218   217    1
   101   131   132    1
   102    22    23    2
   103    68    67   ar
   104   110   100   am
   105    43    44    1
   106   105   103   ar
   107   100    99    1
   108    71    73   ar
   109    71    69   ar
   110    10     8   ar
   111    10    11   ar
   112    20    14   am
   113    73    75   ar
   114    44    45    2
   115   216   217   ar
   116   216   214   ar
   117   106   104   ar
   118     8     6   ar
   119    67    69   ar
   120    67    66    1
   121   132   133    1
   122   217   215   ar
   123    69    72   ar
   124   103   104   ar
   125   103   102    1
   126    75    74   ar
   127    66    63    1
   128     4     3    2
   129   206   205    1
   130    11     9   ar
   131   133   134    2
   132    72    74   ar
   133    99   102    1
   134    99    98    1
   135   214   212   ar
   136    14    13    1
   137    14    15    2
   138     6     5    1
   139     6     7   ar
   140   205   202    1
   141   215   213   ar
   142    13    12    1
   143    13    16    1
   144     5     2    1
   145     3    12   am
   146     3     2    1
   147    18    16    1
   148     9     7   ar
   149    95    97   ar
   150    95    93   ar
   151    63    62    1
   152    63    64    1
   153   184   181    1
   154   198   200   ar
   155   198   196   ar
   156    97    96   ar
   157   212   213   ar
   158   212   211    1
   159    62    58   am
   160     2     1    1
   161   200   199   ar
   162    61    60    1
   163   202   201    1
   164   202   203    1
   165    64    65    2
   166    16    17    1
   167    60    57    1
   168   181   180    1
   169   181   182    1
   170    19    17    1
   171    93    92   ar
   172   201   193   am
   173    55    54    2
   174   207   203   am
   175   207   208    1
   176   196   195    1
   177   196   197   ar
   178    86    84    1
   179   211   208    1
   180   203   204    2
   181   195   192    1
   182    96    94   ar
   183    58    57    1
   184    58    59    2
   185   183   182    2
   186   199   197   ar
   187   182   185   am
   188    85    84    1
   189   208   209    1
   190    57    56    1
   191   209   210    2
   192   193   192    1
   193   193   194    2
   194    54    56   am
   195    54    53    1
   196    84    83    2
   197    92    94   ar
   198    92    91    1
   199   192   191    1
   200   190   189    1
   201    52    53    1
   202   185   186    1
   203    91    88    1
   204    83    82    1
   205   186   189    1
   206   186   187    1
   207    82    81    1
   208    88    89    1
   209    88    87    1
   210    90    89    2
   211    79    78    2
   212   187   188    2
   213    81    80    1
   214    80    77    1
   215    78    77    1
   216    77    76    1
