@<TRIPOS>MOLECULE
tmp/1x2eA00.pdb
 200 196 0 0 0
SMALL
GASTEIGER

@<TRIPOS>ATOM
      1  N         35.4560   -4.3970   -5.7900 N.3    39  PHE39      -0.1241
      2  CA        34.4030   -3.4090   -5.9840 C.3    39  PHE39       0.1605
      3  C         33.2630   -4.0520   -6.7660 C.2    39  PHE39       0.2264
      4  O         33.4790   -4.6050   -7.8480 O.2    39  PHE39      -0.2867
      5  CB        34.9350   -2.2040   -6.7650 C.3    39  PHE39       0.0534
      6  CG        33.8750   -1.1800   -7.1000 C.ar   39  PHE39      -0.0203
      7  CD1       33.4980   -0.2140   -6.1720 C.ar   39  PHE39      -0.0042
      8  CD2       33.2270   -1.2110   -8.3280 C.ar   39  PHE39      -0.0042
      9  CE1       32.4890    0.7020   -6.4660 C.ar   39  PHE39      -0.0003
     10  CE2       32.2180   -0.3000   -8.6320 C.ar   39  PHE39      -0.0003
     11  CZ        31.8470    0.6570   -7.7010 C.ar   39  PHE39      -0.0000
     12  N         26.7120   -1.4010   -9.2400 N.3    42  GLY42      -0.1210
     13  CA        25.2780   -1.5070   -9.0800 C.3    42  GLY42       0.1956
     14  C         24.4890   -1.8310  -10.3310 C.2    42  GLY42       0.2612
     15  O         25.0300   -2.2880  -11.3390 O.2    42  GLY42      -0.2717
     16  N         23.1860   -1.5840  -10.2520 N.am   43  GLY43      -0.1956
     17  CA        22.2990   -1.8620  -11.3610 C.3    43  GLY43       0.1869
     18  C         21.2130   -2.8060  -10.8890 C.2    43  GLY43       0.2309
     19  O         20.2490   -2.3620  -10.2670 O.2    43  GLY43      -0.2863
     20  N         24.9760   -2.1170  -14.3490 N.3    46  GLY46      -0.1225
     21  CA        25.4520   -0.7440  -14.3800 C.3    46  GLY46       0.1811
     22  C         26.8610   -0.5320  -14.8990 C.2    46  GLY46       0.2280
     23  O         27.1480    0.4940  -15.5250 O.2    46  GLY46      -0.2866
     24  N         35.6790    4.7260  -10.0600 N.3    52  HIS52      -0.1241
     25  CA        35.5570    3.7510   -8.9800 C.3    52  HIS52       0.1621
     26  C         36.9130    3.3100   -8.4280 C.2    52  HIS52       0.2264
     27  O         36.9880    2.7120   -7.3560 O.2    52  HIS52      -0.2867
     28  CB        34.7920    2.5110   -9.4510 C.3    52  HIS52       0.0745
     29  CG        33.3900    2.7900   -9.9030 C.ar   52  HIS52       0.0817
     30  ND1       32.4980    3.5320   -9.1570 N.ar   52  HIS52      -0.2268
     31  CD2       32.7180    2.3960  -11.0100 C.ar   52  HIS52       0.1154
     32  CE1       31.3380    3.5830   -9.7860 C.ar   52  HIS52       0.1986
     33  NE2       31.4450    2.9020  -10.9120 N.ar   52  HIS52      -0.2212
     34  N         27.5660   -0.8140   -3.4450 N.3   109  GLY109     -0.1210
     35  CA        26.4950    0.1350   -3.2220 C.3   109  GLY109      0.1956
     36  C         25.2990   -0.2180   -4.0830 C.2   109  GLY109      0.2613
     37  O         25.4620   -0.6590   -5.2220 O.2   109  GLY109     -0.2717
     38  N         24.0990   -0.0460   -3.5350 N.am  110  SER110     -0.1938
     39  CA        22.8800   -0.3290   -4.2750 C.3   110  SER110      0.2055
     40  C         22.7910   -1.8280   -4.5920 C.2   110  SER110      0.2643
     41  O         22.9100   -2.6490   -3.6870 O.2   110  SER110     -0.2714
     42  CB        22.8850    0.5040   -5.5510 C.3   110  SER110      0.2130
     43  OG        21.5730    0.8940   -5.8900 O.3   110  SER110     -0.2179
     44  N         22.5700   -2.1970   -5.8510 N.am  111  TRP111     -0.1973
     45  CA        22.5180   -3.6190   -6.1920 C.3   111  TRP111      0.1640
     46  C         23.8430   -4.2410   -5.7590 C.2   111  TRP111      0.2290
     47  O         23.9190   -5.4380   -5.4660 O.2   111  TRP111     -0.2864
     48  CB        22.3140   -3.8320   -7.6960 C.3   111  TRP111      0.0576
     49  CG        22.8910   -5.1390   -8.1980 C.ar  111  TRP111      0.0006
     50  CD1       24.0730   -5.3100   -8.8690 C.ar  111  TRP111      0.0946
     51  CD2       22.3550   -6.4530   -7.9990 C.ar  111  TRP111      0.0152
     52  NE1       24.3060   -6.6430   -9.0950 N.ar  111  TRP111     -0.2442
     53  CE2       23.2690   -7.3690   -8.5730 C.ar  111  TRP111      0.0810
     54  CE3       21.1940   -6.9490   -7.3890 C.ar  111  TRP111      0.0012
     55  CZ2       23.0560   -8.7520   -8.5540 C.ar  111  TRP111      0.0191
     56  CZ3       20.9830   -8.3290   -7.3710 C.ar  111  TRP111      0.0001
     57  CH2       21.9100   -9.2110   -7.9510 C.ar  111  TRP111      0.0015
     58  N         26.5360    0.6540    0.8000 N.3   133  ARG133     -0.1245
     59  CA        25.8620    1.9270    0.5840 C.3   133  ARG133      0.1563
     60  C         24.5430    1.7470   -0.1760 C.2   133  ARG133      0.2260
     61  O         24.4650    0.9550   -1.1150 O.2   133  ARG133     -0.2867
     62  CB        26.8000    2.8660   -0.1830 C.3   133  ARG133      0.0307
     63  CG        26.2690    4.2700   -0.4100 C.3   133  ARG133      0.0489
     64  CD        25.4470    4.3680   -1.6760 C.3   133  ARG133      0.2205
     65  NE        26.2090    3.9370   -2.8420 N.pl3 133  ARG133     -0.0865
     66  CZ        25.7100    3.8520   -4.0710 C.cat 133  ARG133      0.5346
     67  NH1       24.4440    4.1770   -4.2970 N.pl3 133  ARG133      0.1354
     68  NH2       26.4710    3.4170   -5.0680 N.pl3 133  ARG133      0.1354
     69  N         19.9050   -2.3840   -0.5520 N.3   136  PHE136     -0.1241
     70  CA        18.8650   -2.9160   -1.4170 C.3   136  PHE136      0.1605
     71  C         18.8550   -4.4220   -1.1460 C.2   136  PHE136      0.2264
     72  O         19.8350   -5.1060   -1.4340 O.2   136  PHE136     -0.2867
     73  CB        19.2460   -2.6320   -2.8770 C.3   136  PHE136      0.0534
     74  CG        18.1780   -2.9790   -3.8750 C.ar  136  PHE136     -0.0203
     75  CD1       18.5230   -3.4470   -5.1410 C.ar  136  PHE136     -0.0042
     76  CD2       16.8320   -2.7990   -3.5770 C.ar  136  PHE136     -0.0042
     77  CE1       17.5400   -3.7290   -6.0900 C.ar  136  PHE136     -0.0003
     78  CE2       15.8470   -3.0790   -4.5230 C.ar  136  PHE136     -0.0003
     79  CZ        16.2020   -3.5420   -5.7770 C.ar  136  PHE136     -0.0000
     80  N          9.8320    1.3380   -5.9390 N.3   146  TYR146     -0.1227
     81  CA        10.4910    1.9920   -7.0530 C.3   146  TYR146      0.1736
     82  C          9.8730    1.8210   -8.4340 C.2   146  TYR146      0.2595
     83  O         10.0130    2.7020   -9.2790 O.2   146  TYR146     -0.2718
     84  CB        11.9520    1.5530   -7.0900 C.3   146  TYR146      0.0548
     85  CG        12.8740    2.5340   -7.7610 C.ar  146  TYR146     -0.0200
     86  CD1       12.7400    3.9110   -7.5450 C.ar  146  TYR146     -0.0009
     87  CD2       13.9330    2.0910   -8.5490 C.ar  146  TYR146     -0.0009
     88  CE1       13.6500    4.8280   -8.1000 C.ar  146  TYR146      0.0417
     89  CE2       14.8480    2.9890   -9.1000 C.ar  146  TYR146      0.0417
     90  CZ        14.7030    4.3560   -8.8730 C.ar  146  TYR146      0.1957
     91  OH        15.6160    5.2320   -9.4190 O.3   146  TYR146     -0.2866
     92  N          9.1700    0.7180   -8.6700 N.am  147  TYR147     -0.1976
     93  CA         8.6040    0.4890   -9.9930 C.3   147  TYR147      0.1639
     94  C          7.0970    0.3420  -10.1300 C.2   147  TYR147      0.2290
     95  O          6.6050    0.0680  -11.2220 O.2   147  TYR147     -0.2864
     96  CB         9.2820   -0.7260  -10.6120 C.3   147  TYR147      0.0560
     97  CG        10.7560   -0.5020  -10.8660 C.ar  147  TYR147     -0.0198
     98  CD1       11.1850    0.3010  -11.9230 C.ar  147  TYR147     -0.0009
     99  CD2       11.7160   -1.0670  -10.0340 C.ar  147  TYR147     -0.0009
    100  CE1       12.5320    0.5360  -12.1420 C.ar  147  TYR147      0.0417
    101  CE2       13.0720   -0.8420  -10.2470 C.ar  147  TYR147      0.0417
    102  CZ        13.4700   -0.0400  -11.3020 C.ar  147  TYR147      0.1957
    103  OH        14.8030    0.1750  -11.5240 O.3   147  TYR147     -0.2866
    104  N         15.5640    5.9950  -13.6050 N.3   201  GLU201     -0.1245
    105  CA        16.5200    5.8390  -12.5280 C.3   201  GLU201      0.1567
    106  C         17.6030    6.9210  -12.5200 C.2   201  GLU201      0.2260
    107  O         17.9870    7.4210  -11.4590 O.2   201  GLU201     -0.2867
    108  CB        17.1660    4.4600  -12.6080 C.3   201  GLU201      0.0388
    109  CG        18.2440    4.2530  -11.5700 C.3   201  GLU201      0.1160
    110  CD        18.6480    2.7990  -11.4170 C.2   201  GLU201      0.3649
    111  OE1       19.6310    2.5490  -10.7050 O.co2 201  GLU201     -0.2457
    112  OE2       17.9820    1.9110  -11.9940 O.co2 201  GLU201     -0.2457
    113  N         18.1630    9.4390   -8.8230 N.3   205  VAL205     -0.1245
    114  CA        19.2220    8.8900   -7.9930 C.3   205  VAL205      0.1561
    115  C         20.0620    9.9460   -7.2580 C.2   205  VAL205      0.2260
    116  O         20.9380    9.6150   -6.4610 O.2   205  VAL205     -0.2867
    117  CB        20.1070    7.9560   -8.8650 C.3   205  VAL205      0.0252
    118  CG1       20.8490    8.7670   -9.9260 C.3   205  VAL205      0.0019
    119  CG2       21.0610    7.1810   -8.0030 C.3   205  VAL205      0.0019
    120  N         22.2380    8.1620  -19.1150 N.3   216  PHE216     -0.1241
    121  CA        21.4700    6.9330  -18.8920 C.3   216  PHE216      0.1605
    122  C         20.6130    6.6250  -20.1110 C.2   216  PHE216      0.2264
    123  O         19.9690    5.5800  -20.1760 O.2   216  PHE216     -0.2867
    124  CB        20.5510    7.0590  -17.6680 C.3   216  PHE216      0.0534
    125  CG        21.2480    6.8640  -16.3520 C.ar  216  PHE216     -0.0203
    126  CD1       22.1490    7.8130  -15.8730 C.ar  216  PHE216     -0.0042
    127  CD2       20.9820    5.7370  -15.5760 C.ar  216  PHE216     -0.0042
    128  CE1       22.7720    7.6470  -14.6340 C.ar  216  PHE216     -0.0003
    129  CE2       21.5980    5.5590  -14.3350 C.ar  216  PHE216     -0.0003
    130  CZ        22.4950    6.5170  -13.8620 C.ar  216  PHE216     -0.0000
    131  N         21.4920   -2.1130  -19.4510 N.3   225  PHE225     -0.1241
    132  CA        21.0470   -1.7060  -18.1300 C.3   225  PHE225      0.1605
    133  C         19.5860   -2.1120  -17.8650 C.2   225  PHE225      0.2264
    134  O         19.2870   -2.8120  -16.8980 O.2   225  PHE225     -0.2867
    135  CB        21.2310   -0.1880  -17.9870 C.3   225  PHE225      0.0534
    136  CG        21.0830    0.3120  -16.5830 C.ar  225  PHE225     -0.0203
    137  CD1       19.9990    1.0980  -16.2230 C.ar  225  PHE225     -0.0042
    138  CD2       22.0370   -0.0050  -15.6140 C.ar  225  PHE225     -0.0042
    139  CE1       19.8620    1.5690  -14.9100 C.ar  225  PHE225     -0.0003
    140  CE2       21.9110    0.4570  -14.3080 C.ar  225  PHE225     -0.0003
    141  CZ        20.8210    1.2460  -13.9530 C.ar  225  PHE225     -0.0000
    142  N         18.5870   -5.2270  -15.3970 N.3   229  GLU229     -0.1245
    143  CA        17.8630   -4.8200  -14.1960 C.3   229  GLU229      0.1567
    144  C         16.4940   -5.4860  -14.1510 C.2   229  GLU229      0.2260
    145  O         16.1320   -6.1260  -13.1660 O.2   229  GLU229     -0.2867
    146  CB        17.6700   -3.3100  -14.1740 C.3   229  GLU229      0.0388
    147  CG        18.6480   -2.5660  -13.3070 C.3   229  GLU229      0.1160
    148  CD        18.2480   -1.1170  -13.1470 C.2   229  GLU229      0.3649
    149  OE1       18.9120   -0.3970  -12.3780 O.co2 229  GLU229     -0.2457
    150  OE2       17.2640   -0.6990  -13.7980 O.co2 229  GLU229     -0.2457
    151  N         14.8120   -8.3140  -11.5130 N.3   233  PHE233     -0.1241
    152  CA        13.6440   -7.9660  -10.7200 C.3   233  PHE233      0.1605
    153  C         12.4880   -8.8770  -11.0940 C.2   233  PHE233      0.2264
    154  O         11.6750   -9.2380  -10.2400 O.2   233  PHE233     -0.2867
    155  CB        13.2710   -6.4940  -10.9270 C.3   233  PHE233      0.0534
    156  CG        14.3850   -5.5360  -10.5870 C.ar  233  PHE233     -0.0203
    157  CD1       15.4250   -5.9260   -9.7450 C.ar  233  PHE233     -0.0042
    158  CD2       14.4010   -4.2480  -11.1150 C.ar  233  PHE233     -0.0042
    159  CE1       16.4660   -5.0530   -9.4400 C.ar  233  PHE233     -0.0003
    160  CE2       15.4400   -3.3660  -10.8150 C.ar  233  PHE233     -0.0003
    161  CZ        16.4740   -3.7690   -9.9770 C.ar  233  PHE233     -0.0000
    162  N         15.7430    5.6050   -4.5520 N.3   267  ALA267     -0.1231
    163  CA        15.8320    4.3140   -5.2280 C.3   267  ALA267      0.1694
    164  C         15.7030    3.2000   -4.1980 C.2   267  ALA267      0.2592
    165  O         15.0590    2.1890   -4.4470 O.2   267  ALA267     -0.2718
    166  CB        17.1660    4.1910   -5.9760 C.3   267  ALA267      0.0304
    167  N         16.3270    3.4020   -3.0400 N.am  268  CYS268     -0.1970
    168  CA        16.2950    2.4310   -1.9520 C.3   268  CYS268      0.1712
    169  C         15.9970    3.1940   -0.6720 C.2   268  CYS268      0.2296
    170  O         16.8030    4.0090   -0.2300 O.2   268  CYS268     -0.2864
    171  CB        17.6500    1.7260   -1.8230 C.3   268  CYS268      0.0983
    172  SG        18.2570    0.9900   -3.3480 S.3   268  CYS268     -0.0798
    173  N         20.5070    8.9930   -3.3410 N.3   293  HIS293     -0.1226
    174  CA        21.0030    7.6260   -3.4920 C.3   293  HIS293      0.1752
    175  C         22.4630    7.4580   -3.9280 C.2   293  HIS293      0.2597
    176  O         23.2100    6.6620   -3.3490 O.2   293  HIS293     -0.2718
    177  CB        20.1200    6.8950   -4.5050 C.3   293  HIS293      0.0759
    178  CG        20.5370    5.4840   -4.7670 C.ar  293  HIS293      0.0818
    179  ND1       20.5210    4.5100   -3.7910 N.ar  293  HIS293     -0.2268
    180  CD2       20.9490    4.8720   -5.9020 C.ar  293  HIS293      0.1154
    181  CE1       20.9040    3.3590   -4.3150 C.ar  293  HIS293      0.1986
    182  NE2       21.1680    3.5520   -5.5940 N.ar  293  HIS293     -0.2212
    183  N         22.8490    8.2040   -4.9590 N.am  294  SER294     -0.1938
    184  CA        24.1790    8.1080   -5.5510 C.3   294  SER294      0.2055
    185  C         25.3960    8.2150   -4.6320 C.2   294  SER294      0.2643
    186  O         25.4210    8.9960   -3.6870 O.2   294  SER294     -0.2714
    187  CB        24.2970    9.1170   -6.6900 C.3   294  SER294      0.2130
    188  OG        25.5220    8.9410   -7.3590 O.3   294  SER294     -0.2179
    189  N         26.4150    7.4200   -4.9450 N.am  295  TYR295     -0.1973
    190  CA        27.6440    7.3710   -4.1660 C.3   295  TYR295      0.1639
    191  C         28.3880    8.7010   -4.1260 C.2   295  TYR295      0.2290
    192  O         29.0590    8.9990   -3.1460 O.2   295  TYR295     -0.2864
    193  CB        28.5760    6.2750   -4.7160 C.3   295  TYR295      0.0560
    194  CG        29.5030    6.7450   -5.8210 C.ar  295  TYR295     -0.0198
    195  CD1       30.7750    7.2470   -5.5260 C.ar  295  TYR295     -0.0009
    196  CD2       29.0900    6.7400   -7.1530 C.ar  295  TYR295     -0.0009
    197  CE1       31.6100    7.7380   -6.5310 C.ar  295  TYR295      0.0417
    198  CE2       29.9150    7.2260   -8.1680 C.ar  295  TYR295      0.0417
    199  CZ        31.1750    7.7250   -7.8520 C.ar  295  TYR295      0.1957
    200  OH        31.9960    8.2050   -8.8580 O.3   295  TYR295     -0.2866
@<TRIPOS>BOND
     1   123   122    2
     2   122   121    1
     3   131   132    1
     4   120   121    1
     5   121   124    1
     6   132   135    1
     7   132   133    1
     8   135   136    1
     9   133   134    2
    10   124   125    1
    11   136   137   ar
    12   136   138   ar
    13   125   126   ar
    14   125   127   ar
    15   137   139   ar
    16   126   128   ar
    17   138   140   ar
    18   127   129   ar
    19    23    22    2
    20   142   143    1
    21   139   141   ar
    22    22    21    1
    23   128   130   ar
    24    21    20    1
    25   129   130   ar
    26   140   141   ar
    27   143   146    1
    28   143   144    1
    29   146   147    1
    30   144   145    2
    31   150   148   ar
    32   104   105    1
    33   147   148    1
    34   148   149   ar
    35   108   105    1
    36   108   109    1
    37   105   106    1
    38   106   107    2
    39   100    98   ar
    40   100   102   ar
    41   112   110   ar
    42    98    97   ar
    43   109   110    1
    44   103   102    1
    45   151   152    1
    46   110   111   ar
    47    17    18    1
    48    17    16    1
    49    15    14    2
    50   102   101   ar
    51    95    94    2
    52   158   160   ar
    53   158   156   ar
    54   153   152    1
    55   153   154    2
    56    31    33   ar
    57    31    29   ar
    58   155   152    1
    59   155   156    1
    60    33    32   ar
    61    18    19    2
    62    97    96    1
    63    97    99   ar
    64   160   161   ar
    65    96    93    1
    66   156   157   ar
    67    14    16   am
    68    14    13    1
    69   101    99   ar
    70    94    93    1
    71    24    25    1
    72    93    92    1
    73   161   159   ar
    74   118   117    1
    75    29    28    1
    76    29    30   ar
    77    32    30   ar
    78   157   159   ar
    79    28    25    1
    80    91    90    1
    81    83    82    2
    82    12    13    1
    83    89    90   ar
    84    89    87   ar
    85    52    50   ar
    86    52    53   ar
    87    25    26    1
    88    90    88   ar
    89    50    49   ar
    90   117   119    1
    91   117   114    1
    92   200   199    1
    93   113   114    1
    94    92    82   am
    95    10     8   ar
    96    10    11   ar
    97    53    55   ar
    98    53    51   ar
    99    55    57   ar
   100    87    85   ar
   101    82    81    1
   102    26    27    2
   103     8     6   ar
   104    49    51   ar
   105    49    48    1
   106   198   199   ar
   107   198   196   ar
   108    88    86   ar
   109    51    54   ar
   110   114   115    1
   111    57    56   ar
   112   199   197   ar
   113     4     3    2
   114    85    86   ar
   115    85    84    1
   116    11     9   ar
   117    48    45    1
   118    54    56   ar
   119   188   187    1
   120   115   116    2
   121   196   194   ar
   122     6     5    1
   123     6     7   ar
   124    84    81    1
   125    81    80    1
   126     3     2    1
   127     5     2    1
   128   187   184    1
   129   197   195   ar
   130     9     7   ar
   131    45    44    1
   132    45    46    1
   133    77    79   ar
   134    77    75   ar
   135     2     1    1
   136   166   163    1
   137   180   182   ar
   138   180   178   ar
   139    43    42    1
   140    44    40   am
   141   194   195   ar
   142   194   193    1
   143    79    78   ar
   144    46    47    2
   145   182   181   ar
   146   184   183    1
   147   184   185    1
   148    42    39    1
   149   163   162    1
   150   163   164    1
   151    37    36    2
   152    75    74   ar
   153    68    66    1
   154   183   175   am
   155   189   185   am
   156   189   190    1
   157   178   177    1
   158   178   179   ar
   159   193   190    1
   160   185   186    2
   161    40    39    1
   162    40    41    2
   163    78    76   ar
   164   177   174    1
   165   165   164    2
   166   181   179   ar
   167    67    66    1
   168    39    38    1
   169   164   167   am
   170   190   191    1
   171   191   192    2
   172    36    38   am
   173    36    35    1
   174    66    65    2
   175   175   174    1
   176   175   176    2
   177    74    76   ar
   178    74    73    1
   179   174   173    1
   180    34    35    1
   181   172   171    1
   182   167   168    1
   183    73    70    1
   184    65    64    1
   185   168   171    1
   186   168   169    1
   187    64    63    1
   188    72    71    2
   189    70    71    1
   190    70    69    1
   191    61    60    2
   192   169   170    2
   193    63    62    1
   194    62    59    1
   195    60    59    1
   196    59    58    1
