@<TRIPOS>MOLECULE
tmp/1x2hA00.pdb
 121 117 0 0 0
SMALL
GASTEIGER

@<TRIPOS>ATOM
      1  N         27.7180   52.8150   47.1590 N.3    17  LEU17      -0.1245
      2  CA        28.6130   52.5070   46.0760 C.3    17  LEU17       0.1561
      3  C         29.9970   52.0780   46.5720 C.2    17  LEU17       0.2260
      4  O         30.5860   51.1050   46.0410 O.2    17  LEU17      -0.2867
      5  CB        28.7560   53.7030   45.1920 C.3    17  LEU17       0.0270
      6  CG        28.1780   53.4350   43.8210 C.3    17  LEU17       0.0019
      7  CD1       28.0650   54.7460   43.0820 C.3    17  LEU17       0.0001
      8  CD2       29.0370   52.4480   43.0020 C.3    17  LEU17       0.0001
      9  N         29.9070   48.7870   47.4990 N.3    20  GLU20      -0.1231
     10  CA        29.9030   47.9180   46.3300 C.3    20  GLU20       0.1699
     11  C         31.2890   47.7430   45.7690 C.2    20  GLU20       0.2592
     12  O         31.6340   46.6690   45.2980 O.2    20  GLU20      -0.2718
     13  CB        28.9990   48.4480   45.2330 C.3    20  GLU20       0.0402
     14  CG        27.7340   47.6750   45.1070 C.3    20  GLU20       0.1161
     15  CD        26.8470   48.1300   43.9400 C.2    20  GLU20       0.3649
     16  OE1       26.4910   49.3470   43.8720 O.co2  20  GLU20      -0.2457
     17  OE2       26.4460   47.2510   43.1260 O.co2  20  GLU20      -0.2457
     18  N         32.0810   48.8050   45.8230 N.am   21  GLU21      -0.1979
     19  CA        33.3910   48.8280   45.2120 C.3    21  GLU21       0.1602
     20  C         34.3910   48.0410   46.1090 C.2    21  GLU21       0.2287
     21  O         35.2310   47.2460   45.6530 O.2    21  GLU21      -0.2864
     22  CB        33.7660   50.2980   45.0020 C.3    21  GLU21       0.0415
     23  CG        34.5770   50.6570   43.7320 C.3    21  GLU21       0.1163
     24  CD        33.7510   50.7170   42.4130 C.2    21  GLU21       0.3649
     25  OE1       32.7510   51.4680   42.2920 O.co2  21  GLU21      -0.2457
     26  OE2       34.1570   50.0310   41.4540 O.co2  21  GLU21      -0.2457
     27  N         33.8310   44.3320   45.2390 N.3    24  PHE24      -0.1241
     28  CA        34.4140   43.9860   43.9860 C.3    24  PHE24       0.1605
     29  C         35.9170   43.8660   44.1280 C.2    24  PHE24       0.2264
     30  O         36.5060   42.9890   43.5390 O.2    24  PHE24      -0.2867
     31  CB        34.0410   45.0220   42.9410 C.3    24  PHE24       0.0534
     32  CG        34.5270   44.6820   41.5500 C.ar   24  PHE24      -0.0203
     33  CD1       34.0750   43.5380   40.8890 C.ar   24  PHE24      -0.0042
     34  CD2       35.4370   45.5110   40.8830 C.ar   24  PHE24      -0.0042
     35  CE1       34.5320   43.2220   39.6090 C.ar   24  PHE24      -0.0003
     36  CE2       35.8710   45.1850   39.6040 C.ar   24  PHE24      -0.0003
     37  CZ        35.4140   44.0280   38.9820 C.ar   24  PHE24      -0.0000
     38  N         29.5730   56.0210   38.9880 N.3    68  ARG68      -0.1231
     39  CA        30.0290   54.6700   39.2870 C.3    68  ARG68       0.1694
     40  C         31.3620   54.5420   38.5940 C.2    68  ARG68       0.2593
     41  O         31.7930   55.5010   37.9630 O.2    68  ARG68      -0.2718
     42  CB        28.9940   53.6230   38.8570 C.3    68  ARG68       0.0321
     43  CG        28.9470   53.2830   37.4170 C.3    68  ARG68       0.0489
     44  CD        27.5860   52.6980   37.0650 C.3    68  ARG68       0.2205
     45  NE        27.4820   52.6770   35.6070 N.pl3  68  ARG68      -0.0865
     46  CZ        26.6140   53.4230   34.8900 C.cat  68  ARG68       0.5346
     47  NH1       25.7170   54.2120   35.5250 N.pl3  68  ARG68       0.1354
     48  NH2       26.6210   53.3880   33.5330 N.pl3  68  ARG68       0.1354
     49  N         32.0610   53.4250   38.7170 N.am   69  SER69      -0.1938
     50  CA        33.3920   53.3730   38.0530 C.3    69  SER69       0.2055
     51  C         33.3990   52.5770   36.7880 C.2    69  SER69       0.2644
     52  O         34.4500   52.2930   36.2310 O.2    69  SER69      -0.2714
     53  CB        34.4520   52.8030   38.9690 C.3    69  SER69       0.2130
     54  OG        34.1790   51.4540   39.1180 O.3    69  SER69      -0.2179
     55  N         32.2170   52.1800   36.3540 N.am   70  SER70      -0.1935
     56  CA        32.0790   51.3010   35.1940 C.3    70  SER70       0.2055
     57  C         31.6040   52.1210   34.0240 C.2    70  SER70       0.2643
     58  O         31.1870   53.2540   34.1920 O.2    70  SER70      -0.2714
     59  CB        31.0560   50.2360   35.4880 C.3    70  SER70       0.2130
     60  OG        29.7800   50.8380   35.6470 O.3    70  SER70      -0.2179
     61  N         31.6570   51.5650   32.8250 N.am   71  GLY71      -0.1954
     62  CA        31.1720   52.3010   31.6500 C.3    71  GLY71       0.1869
     63  C         29.6430   52.4270   31.6050 C.2    71  GLY71       0.2309
     64  O         28.9540   52.3210   32.6380 O.2    71  GLY71      -0.2863
     65  N         23.4440   43.6830   36.0530 N.3   135  ALA135     -0.1231
     66  CA        24.6940   43.7190   35.2980 C.3   135  ALA135      0.1694
     67  C         25.6810   42.8150   35.9640 C.2   135  ALA135      0.2592
     68  O         25.6930   42.6990   37.1700 O.2   135  ALA135     -0.2718
     69  CB        25.2550   45.1480   35.1880 C.3   135  ALA135      0.0304
     70  N         26.5040   42.1800   35.1560 N.am  136  TYR136     -0.1962
     71  CA        27.3810   41.1260   35.6150 C.3   136  TYR136      0.1771
     72  C         28.8030   41.2680   35.0940 C.2   136  TYR136      0.2619
     73  O         29.0110   41.6830   33.9890 O.2   136  TYR136     -0.2715
     74  CB        26.8290   39.7740   35.1580 C.3   136  TYR136      0.0574
     75  CG        27.5790   38.6090   35.7380 C.ar  136  TYR136     -0.0198
     76  CD1       27.5360   38.3410   37.1030 C.ar  136  TYR136     -0.0009
     77  CD2       28.3620   37.7770   34.9320 C.ar  136  TYR136     -0.0009
     78  CE1       28.2560   37.2460   37.6700 C.ar  136  TYR136      0.0417
     79  CE2       29.0860   36.6640   35.4790 C.ar  136  TYR136      0.0417
     80  CZ        29.0330   36.4050   36.8510 C.ar  136  TYR136      0.1957
     81  OH        29.7200   35.3130   37.4230 O.3   136  TYR136     -0.2866
     82  N         29.7860   40.8870   35.8800 N.am  137  ARG137     -0.1977
     83  CA        31.1320   40.8480   35.3960 C.3   137  ARG137      0.1597
     84  C         31.8810   39.7720   36.0860 C.2   137  ARG137      0.2287
     85  O         31.6670   39.5170   37.2740 O.2   137  ARG137     -0.2864
     86  CB        31.8410   42.1640   35.6380 C.3   137  ARG137      0.0334
     87  CG        32.0820   42.9010   34.3740 C.3   137  ARG137      0.0492
     88  CD        33.1010   43.9230   34.6080 C.3   137  ARG137      0.2205
     89  NE        32.5500   45.2130   34.2350 N.pl3 137  ARG137     -0.0865
     90  CZ        32.7640   45.7970   33.0740 C.cat 137  ARG137      0.5346
     91  NH1       33.5490   45.1950   32.1870 N.pl3 137  ARG137      0.1354
     92  NH2       32.2090   46.9830   32.8290 N.pl3 137  ARG137      0.1354
     93  N         30.7260   38.9640   39.9770 N.3   144  PHE144     -0.1241
     94  CA        30.0800   40.0870   40.6530 C.3   144  PHE144      0.1605
     95  C         28.8060   40.4060   39.9160 C.2   144  PHE144      0.2264
     96  O         28.8240   40.5260   38.6880 O.2   144  PHE144     -0.2867
     97  CB        31.0200   41.3160   40.7080 C.3   144  PHE144      0.0534
     98  CG        30.4240   42.5010   41.4040 C.ar  144  PHE144     -0.0203
     99  CD1       29.3950   43.2550   40.7990 C.ar  144  PHE144     -0.0042
    100  CD2       30.8640   42.8730   42.6710 C.ar  144  PHE144     -0.0042
    101  CE1       28.8430   44.3850   41.4660 C.ar  144  PHE144     -0.0003
    102  CE2       30.2980   43.9970   43.3580 C.ar  144  PHE144     -0.0003
    103  CZ        29.3090   44.7470   42.7520 C.ar  144  PHE144     -0.0000
    104  N         25.0120   42.6000   40.2710 N.3   146  HIS146     -0.1241
    105  CA        24.1350   43.4320   41.0720 C.3   146  HIS146      0.1621
    106  C         23.0450   43.8790   40.2150 C.2   146  HIS146      0.2264
    107  O         23.1570   43.8680   38.9920 O.2   146  HIS146     -0.2867
    108  CB        24.8230   44.6590   41.6650 C.3   146  HIS146      0.0745
    109  CG        25.5100   45.5230   40.6550 C.ar  146  HIS146      0.0817
    110  ND1       26.5300   46.3800   40.9930 N.ar  146  HIS146     -0.2268
    111  CD2       25.3620   45.6360   39.3190 C.ar  146  HIS146      0.1154
    112  CE1       26.9910   46.9760   39.9110 C.ar  146  HIS146      0.1986
    113  NE2       26.3110   46.5270   38.8770 N.ar  146  HIS146     -0.2212
    114  N         29.4030   51.0640   27.0490 N.3   275  LEU275     -0.1245
    115  CA        29.5550   50.0940   28.1190 C.3   275  LEU275      0.1561
    116  C         30.9790   49.9030   28.4740 C.2   275  LEU275      0.2260
    117  O         31.2960   49.9400   29.6630 O.2   275  LEU275     -0.2867
    118  CB        28.9770   48.7520   27.7460 C.3   275  LEU275      0.0270
    119  CG        27.4540   48.7790   27.7380 C.3   275  LEU275      0.0019
    120  CD1       26.9740   47.3650   27.5950 C.3   275  LEU275      0.0001
    121  CD2       26.8540   49.4970   29.0080 C.3   275  LEU275      0.0001
@<TRIPOS>BOND
     1   114   115    1
     2   120   119    1
     3   119   118    1
     4   119   121    1
     5   118   115    1
     6   115   116    1
     7   116   117    2
     8    63    62    1
     9    63    64    2
    10    62    61    1
    11    91    90    1
    12    61    57   am
    13    92    90    1
    14    90    89    2
    15    48    46    1
    16    73    72    2
    17    57    58    2
    18    57    56    1
    19    89    88    1
    20    87    88    1
    21    87    86    1
    22    46    47    1
    23    46    45    2
    24    77    79   ar
    25    77    75   ar
    26    72    71    1
    27    72    82   am
    28    70    71    1
    29    70    67   am
    30    74    71    1
    31    74    75    1
    32    69    66    1
    33    56    59    1
    34    56    55    1
    35    66    67    1
    36    66    65    1
    37    83    86    1
    38    83    82    1
    39    83    84    1
    40    79    80   ar
    41    59    60    1
    42    45    44    1
    43    75    76   ar
    44    67    68    2
    45    84    85    2
    46    52    51    2
    47    55    51   am
    48    51    50    1
    49    80    81    1
    50    80    78   ar
    51    44    43    1
    52    76    78   ar
    53    43    42    1
    54    41    40    2
    55    50    49    1
    56    50    53    1
    57    40    49   am
    58    40    39    1
    59    96    95    2
    60    42    39    1
    61   113   111   ar
    62   113   112   ar
    63    53    54    1
    64    37    36   ar
    65    37    35   ar
    66    38    39    1
    67   107   106    2
    68   111   109   ar
    69    36    34   ar
    70    35    33   ar
    71   112   110   ar
    72    95    94    1
    73    93    94    1
    74   106   105    1
    75   104   105    1
    76    94    97    1
    77   109   110   ar
    78   109   108    1
    79    97    98    1
    80    99    98   ar
    81    99   101   ar
    82    34    32   ar
    83    33    32   ar
    84   105   108    1
    85    98   100   ar
    86    26    24   ar
    87   101   103   ar
    88    32    31    1
    89    25    24   ar
    90    24    23    1
    91   100   102   ar
    92   103   102   ar
    93    31    28    1
    94     8     6    1
    95     7     6    1
    96    17    15   ar
    97    30    29    2
    98    23    22    1
    99     6     5    1
   100    16    15   ar
   101    15    14    1
   102    28    29    1
   103    28    27    1
   104    22    19    1
   105    14    13    1
   106     5     2    1
   107    19    18    1
   108    19    20    1
   109    13    10    1
   110    12    11    2
   111    21    20    2
   112    11    18   am
   113    11    10    1
   114     4     3    2
   115     2     3    1
   116     2     1    1
   117    10     9    1
