@<TRIPOS>MOLECULE
tmp/1x38A03.pdb
 181 175 0 0 0
SMALL
GASTEIGER

@<TRIPOS>ATOM
      1  N         24.6740   25.5130   24.1060 N.3    54  LEU54      -0.1245
      2  CA        23.6870   25.7490   25.1610 C.3    54  LEU54       0.1561
      3  C         23.3350   27.2260   25.2790 C.2    54  LEU54       0.2260
      4  O         24.0820   28.1000   24.8410 O.2    54  LEU54      -0.2867
      5  CB        24.1390   25.2090   26.5560 C.3    54  LEU54       0.0270
      6  CG        25.0610   26.1160   27.4030 C.3    54  LEU54       0.0019
      7  CD1       25.0220   25.7220   28.8950 C.3    54  LEU54       0.0001
      8  CD2       26.4940   26.0770   26.8990 C.3    54  LEU54       0.0001
      9  N         22.9260   29.3440   28.6080 N.3    56  GLY56      -0.1210
     10  CA        22.9450   29.5230   30.0630 C.3    56  GLY56       0.1956
     11  C         21.7110   30.3150   30.4740 C.2    56  GLY56       0.2612
     12  O         20.9560   30.8080   29.5980 O.2    56  GLY56      -0.2717
     13  N         21.5010   30.4560   31.7840 N.am   57  GLY57      -0.1956
     14  CA        20.3710   31.2330   32.2850 C.3    57  GLY57       0.1869
     15  C         20.4040   32.6250   31.6690 C.2    57  GLY57       0.2309
     16  O         21.4400   33.3060   31.7120 O.2    57  GLY57      -0.2863
     17  N         18.5930   24.9960   30.5260 N.3    95  ASP95      -0.1239
     18  CA        18.0180   24.7020   31.8540 C.3    95  ASP95       0.1674
     19  C         16.5070   24.9260   31.8000 C.2    95  ASP95       0.2266
     20  O         16.0220   26.0380   32.0540 O.2    95  ASP95      -0.2867
     21  CB        18.6550   25.5710   32.9260 C.3    95  ASP95       0.1410
     22  CG        20.1280   25.2910   33.0630 C.2    95  ASP95       0.3668
     23  OD1       20.9180   26.0710   32.4940 O.co2  95  ASP95      -0.2456
     24  OD2       20.4680   24.2480   33.6570 O.co2  95  ASP95      -0.2456
     25  N         18.5680   20.3320   30.8440 N.3   144  PHE144     -0.1241
     26  CA        19.4780   20.0300   31.9480 C.3   144  PHE144      0.1605
     27  C         18.6740   19.7810   33.2430 C.2   144  PHE144      0.2264
     28  O         18.7570   20.5530   34.1930 O.2   144  PHE144     -0.2867
     29  CB        20.4580   21.1830   32.1770 C.3   144  PHE144      0.0534
     30  CG        21.3760   21.4660   31.0150 C.ar  144  PHE144     -0.0203
     31  CD1       21.5290   22.7860   30.5640 C.ar  144  PHE144     -0.0042
     32  CD2       22.0860   20.4490   30.3800 C.ar  144  PHE144     -0.0042
     33  CE1       22.3880   23.0950   29.4950 C.ar  144  PHE144     -0.0003
     34  CE2       22.9510   20.7480   29.2860 C.ar  144  PHE144     -0.0003
     35  CZ        23.0940   22.0700   28.8460 C.ar  144  PHE144     -0.0000
     36  N         20.6770   26.2020   46.4710 N.3   158  ARG158     -0.1245
     37  CA        19.9580   25.3500   45.5250 C.3   158  ARG158      0.1563
     38  C         19.0130   24.3920   46.2160 C.2   158  ARG158      0.2260
     39  O         18.5210   23.4440   45.5900 O.2   158  ARG158     -0.2867
     40  CB        20.9380   24.5760   44.6260 C.3   158  ARG158      0.0307
     41  CG        22.0670   25.4260   44.0930 C.3   158  ARG158      0.0489
     42  CD        22.8270   24.7130   42.9900 C.3   158  ARG158      0.2205
     43  NE        22.0670   24.6780   41.7440 N.pl3 158  ARG158     -0.0865
     44  CZ        22.6050   24.3850   40.5600 C.cat 158  ARG158      0.5346
     45  NH1       21.8340   24.3840   39.4690 N.pl3 158  ARG158      0.1354
     46  NH2       23.9180   24.1060   40.4780 N.pl3 158  ARG158      0.1354
     47  N         21.3690   15.4360   37.4290 N.3   206  LYS206     -0.1231
     48  CA        22.4520   16.2920   37.9360 C.3   206  LYS206      0.1693
     49  C         22.2870   16.6240   39.4220 C.2   206  LYS206      0.2592
     50  O         21.1740   16.5170   39.9420 O.2   206  LYS206     -0.2718
     51  CB        22.5090   17.5900   37.1210 C.3   206  LYS206      0.0285
     52  CG        21.3840   18.5850   37.4020 C.3   206  LYS206      0.0035
     53  CD        21.3380   19.7070   36.3280 C.3   206  LYS206      0.0206
     54  CE        20.4790   20.8830   36.8110 C.3   206  LYS206      0.1093
     55  NZ        20.5030   22.0250   35.7990 N.3   206  LYS206     -0.1314
     56  N         23.3570   17.0070   40.1340 N.am  207  HIS207     -0.1976
     57  CA        24.7420   17.0260   39.6290 C.3   207  HIS207      0.1656
     58  C         25.4970   15.9180   40.3670 C.2   207  HIS207      0.2291
     59  O         25.4680   15.8420   41.5990 O.2   207  HIS207     -0.2864
     60  CB        25.4110   18.3880   39.8970 C.3   207  HIS207      0.0771
     61  CG        24.5560   19.5660   39.5390 C.ar  207  HIS207      0.0820
     62  ND1       23.5830   20.0650   40.3840 N.ar  207  HIS207     -0.2267
     63  CD2       24.5240   20.3390   38.4240 C.ar  207  HIS207      0.1154
     64  CE1       22.9780   21.0850   39.7930 C.ar  207  HIS207      0.1986
     65  NE2       23.5290   21.2690   38.6070 N.ar  207  HIS207     -0.2212
     66  N         28.9410   24.4780   45.8060 N.3   220  GLU220     -0.1245
     67  CA        30.1560   24.0310   45.1030 C.3   220  GLU220      0.1567
     68  C         31.2660   23.5500   46.0450 C.2   220  GLU220      0.2260
     69  O         32.3890   23.2930   45.5910 O.2   220  GLU220     -0.2867
     70  CB        30.6990   25.1130   44.1420 C.3   220  GLU220      0.0388
     71  CG        29.6550   25.6720   43.1720 C.3   220  GLU220      0.1160
     72  CD        30.2220   26.6500   42.1360 C.2   220  GLU220      0.3649
     73  OE1       31.4700   26.7280   41.9600 O.co2 220  GLU220     -0.2457
     74  OE2       29.4030   27.3400   41.4840 O.co2 220  GLU220     -0.2457
     75  N         25.1760   15.2120   34.4260 N.3   250  MET250     -0.1245
     76  CA        26.0880   16.3530   34.5900 C.3   250  MET250      0.1570
     77  C         26.8430   16.2230   35.8940 C.2   250  MET250      0.2261
     78  O         26.2450   15.9160   36.9320 O.2   250  MET250     -0.2867
     79  CB        25.3310   17.6840   34.5760 C.3   250  MET250      0.0387
     80  CG        26.2370   18.9250   34.6260 C.3   250  MET250      0.0595
     81  SD        25.3060   20.4830   34.7220 S.3   250  MET250     -0.1393
     82  CE        24.3470   20.4570   33.2000 C.3   250  MET250      0.0692
     83  N         30.0300   20.6240   40.5590 N.3   253  TYR253     -0.1241
     84  CA        31.1500   21.4540   41.0050 C.3   253  TYR253      0.1605
     85  C         31.7400   20.9920   42.3480 C.2   253  TYR253      0.2264
     86  O         32.9030   21.2660   42.6580 O.2   253  TYR253     -0.2867
     87  CB        30.6680   22.8720   41.2240 C.3   253  TYR253      0.0534
     88  CG        30.3450   23.7030   39.9980 C.ar  253  TYR253     -0.0201
     89  CD1       29.0860   24.2790   39.8620 C.ar  253  TYR253     -0.0009
     90  CD2       31.3130   23.9770   39.0170 C.ar  253  TYR253     -0.0009
     91  CE1       28.7700   25.0780   38.7830 C.ar  253  TYR253      0.0417
     92  CE2       31.0130   24.7910   37.9120 C.ar  253  TYR253      0.0417
     93  CZ        29.7270   25.3320   37.8080 C.ar  253  TYR253      0.1957
     94  OH        29.3890   26.1560   36.7830 O.3   253  TYR253     -0.2866
     95  N         29.7910   20.6050   34.2900 N.3   285  ASP285     -0.1225
     96  CA        29.0840   21.8420   34.5540 C.3   285  ASP285      0.1805
     97  C         29.9030   22.9800   33.9130 C.2   285  ASP285      0.2598
     98  O         30.9640   22.7530   33.2990 O.2   285  ASP285     -0.2718
     99  CB        28.8640   22.0340   36.0610 C.3   285  ASP285      0.1424
    100  CG        27.6250   22.8780   36.3950 C.2   285  ASP285      0.3668
    101  OD1       27.2640   23.7960   35.6050 O.co2 285  ASP285     -0.2456
    102  OD2       27.0250   22.6270   37.4730 O.co2 285  ASP285     -0.2456
    103  N         29.3910   24.1940   34.0510 N.am  286  TRP286     -0.1962
    104  CA        29.8700   25.3670   33.3160 C.3   286  TRP286      0.1771
    105  C         31.2160   25.8190   33.8710 C.2   286  TRP286      0.2619
    106  O         31.3110   26.2520   35.0200 O.2   286  TRP286     -0.2715
    107  CB        28.8030   26.4460   33.4960 C.3   286  TRP286      0.0590
    108  CG        29.0640   27.8430   33.0280 C.ar  286  TRP286      0.0006
    109  CD1       29.9700   28.7470   33.5320 C.ar  286  TRP286      0.0946
    110  CD2       28.3050   28.5420   32.0330 C.ar  286  TRP286      0.0152
    111  NE1       29.8500   29.9540   32.8620 N.ar  286  TRP286     -0.2442
    112  CE2       28.8280   29.8560   31.9490 C.ar  286  TRP286      0.0810
    113  CE3       27.2430   28.1730   31.1830 C.ar  286  TRP286      0.0012
    114  CZ2       28.3240   30.8120   31.0420 C.ar  286  TRP286      0.0191
    115  CZ3       26.7380   29.1240   30.2860 C.ar  286  TRP286      0.0001
    116  CH2       27.2750   30.4290   30.2380 C.ar  286  TRP286      0.0015
    117  N         32.2640   25.7030   33.0540 N.am  287  GLU287     -0.1977
    118  CA        33.6370   25.9300   33.5470 C.3   287  GLU287      0.1602
    119  C         33.9570   25.0020   34.7320 C.2   287  GLU287      0.2287
    120  O         34.8160   25.3080   35.5870 O.2   287  GLU287     -0.2864
    121  CB        33.8510   27.3900   33.9600 C.3   287  GLU287      0.0415
    122  CG        33.6560   28.3980   32.8260 C.3   287  GLU287      0.1163
    123  CD        33.5960   29.8360   33.3270 C.2   287  GLU287      0.3649
    124  OE1       33.3630   30.0510   34.5390 O.co2 287  GLU287     -0.2457
    125  OE2       33.7660   30.7480   32.4890 O.co2 287  GLU287     -0.2457
    126  N         37.3320   24.8720   37.4310 N.3   291  ARG291     -0.1245
    127  CA        37.2080   24.9890   38.8780 C.3   291  ARG291      0.1563
    128  C         37.7830   23.7950   39.6520 C.2   291  ARG291      0.2260
    129  O         37.6790   23.7350   40.8840 O.2   291  ARG291     -0.2867
    130  CB        35.7440   25.2890   39.2390 C.3   291  ARG291      0.0307
    131  CG        35.2680   26.6220   38.6540 C.3   291  ARG291      0.0489
    132  CD        33.8370   26.9870   39.0540 C.3   291  ARG291      0.2205
    133  NE        33.2610   27.9170   38.0850 N.pl3 291  ARG291     -0.0865
    134  CZ        31.9960   28.3330   38.0700 C.cat 291  ARG291      0.5346
    135  NH1       31.1310   27.9310   39.0020 N.pl3 291  ARG291      0.1354
    136  NH2       31.5990   29.1670   37.1120 N.pl3 291  ARG291      0.1354
    137  N         31.1620   21.4360   28.8490 N.3   316  MET316     -0.1245
    138  CA        30.4540   22.7060   28.7900 C.3   316  MET316      0.1570
    139  C         31.5130   23.7840   29.0190 C.2   316  MET316      0.2261
    140  O         31.8130   24.1580   30.1640 O.2   316  MET316     -0.2867
    141  CB        29.3600   22.7380   29.8710 C.3   316  MET316      0.0387
    142  CG        28.5060   23.9970   29.8320 C.3   316  MET316      0.0595
    143  SD        27.3170   24.0610   31.2210 S.3   316  MET316     -0.1393
    144  CE        26.3800   22.5640   30.8800 C.3   316  MET316      0.0692
    145  N         16.0220   30.9520   38.1870 N.3   430  TRP430     -0.1241
    146  CA        15.8570   30.2470   36.9090 C.3   430  TRP430      0.1605
    147  C         14.5070   30.5960   36.2920 C.2   430  TRP430      0.2264
    148  O         13.7290   29.7120   35.9210 O.2   430  TRP430     -0.2867
    149  CB        15.9190   28.7310   37.1160 C.3   430  TRP430      0.0550
    150  CG        17.2490   28.1870   37.4950 C.ar  430  TRP430      0.0003
    151  CD1       17.5950   27.6290   38.6950 C.ar  430  TRP430      0.0946
    152  CD2       18.4030   28.0720   36.6500 C.ar  430  TRP430      0.0152
    153  NE1       18.9020   27.2100   38.6640 N.ar  430  TRP430     -0.2442
    154  CE2       19.4280   27.4720   37.4250 C.ar  430  TRP430      0.0810
    155  CE3       18.6850   28.4520   35.3200 C.ar  430  TRP430      0.0012
    156  CZ2       20.7190   27.2240   36.9120 C.ar  430  TRP430      0.0191
    157  CZ3       19.9640   28.2010   34.8090 C.ar  430  TRP430      0.0001
    158  CH2       20.9630   27.5950   35.6060 C.ar  430  TRP430      0.0015
    159  N         18.8630   34.1020   34.7710 N.3   434  TRP434     -0.1241
    160  CA        19.5180   33.0800   35.5980 C.3   434  TRP434      0.1605
    161  C         19.0790   33.1590   37.0510 C.2   434  TRP434      0.2264
    162  O         18.6670   32.1470   37.6380 O.2   434  TRP434     -0.2867
    163  CB        21.0230   33.2700   35.4860 C.3   434  TRP434      0.0550
    164  CG        21.8640   32.2780   36.2330 C.ar  434  TRP434      0.0003
    165  CD1       21.6610   30.9230   36.3480 C.ar  434  TRP434      0.0946
    166  CD2       23.0770   32.5670   36.9290 C.ar  434  TRP434      0.0152
    167  NE1       22.6860   30.3550   37.0730 N.ar  434  TRP434     -0.2442
    168  CE2       23.5580   31.3440   37.4600 C.ar  434  TRP434      0.0810
    169  CE3       23.7890   33.7460   37.1840 C.ar  434  TRP434      0.0012
    170  CZ2       24.7390   31.2670   38.2160 C.ar  434  TRP434      0.0191
    171  CZ3       24.9610   33.6710   37.9330 C.ar  434  TRP434      0.0001
    172  CH2       25.4200   32.4390   38.4440 C.ar  434  TRP434      0.0015
    173  N         21.9250   29.3220   42.8500 N.3   491  GLU491     -0.1245
    174  CA        23.3000   28.8700   43.1120 C.3   491  GLU491      0.1567
    175  C         23.9150   29.6830   44.2550 C.2   491  GLU491      0.2260
    176  O         23.2390   29.8920   45.2810 O.2   491  GLU491     -0.2867
    177  CB        24.1440   28.8480   41.8120 C.3   491  GLU491      0.0388
    178  CG        23.6250   27.7940   40.8460 C.3   491  GLU491      0.1160
    179  CD        24.2690   27.8460   39.4750 C.2   491  GLU491      0.3649
    180  OE1       25.5160   27.7290   39.4010 O.co2 491  GLU491     -0.2457
    181  OE2       23.5120   27.9740   38.4740 O.co2 491  GLU491     -0.2457
@<TRIPOS>BOND
     1     1     2    1
     2     4     3    2
     3     2     3    1
     4     2     5    1
     5     5     6    1
     6     8     6    1
     7     6     7    1
     8     9    10    1
     9   138   137    1
    10   138   139    1
    11   138   141    1
    12    35    34   ar
    13    35    33   ar
    14   139   140    2
    15    34    32   ar
    16    33    31   ar
    17    12    11    2
    18   142   141    1
    19   142   143    1
    20    10    11    1
    21   116   115   ar
    22   116   114   ar
    23   115   113   ar
    24    32    30   ar
    25    11    13   am
    26    17    18    1
    27    31    30   ar
    28    25    26    1
    29   144   143    1
    30    30    29    1
    31   114   112   ar
    32   113   110   ar
    33    15    16    2
    34    15    14    1
    35    13    14    1
    36    19    18    1
    37    19    20    2
    38    18    21    1
    39    26    29    1
    40    26    27    1
    41   112   110   ar
    42   112   111   ar
    43   110   108   ar
    44   125   123   ar
    45    23    22   ar
    46   122   123    1
    47   122   121    1
    48   111   109   ar
    49    21    22    1
    50   108   107    1
    51   108   109   ar
    52   117   118    1
    53   117   105   am
    54    22    24   ar
    55    82    81    1
    56    27    28    2
    57    98    97    2
    58   104   107    1
    59   104   105    1
    60   104   103    1
    61   123   124   ar
    62   118   121    1
    63   118   119    1
    64   105   106    2
    65    97   103   am
    66    97    96    1
    67    95    96    1
    68    75    76    1
    69    96    99    1
    70    79    76    1
    71    79    80    1
    72    76    77    1
    73    80    81    1
    74   119   120    2
    75   159   160    1
    76   157   155   ar
    77   157   158   ar
    78   155   152   ar
    79   163   160    1
    80   163   164    1
    81   160   161    1
    82   101   100   ar
    83   158   156   ar
    84    55    54    1
    85    77    78    2
    86   148   147    2
    87    99   100    1
    88   164   165   ar
    89   164   166   ar
    90   147   146    1
    91    53    54    1
    92    53    52    1
    93   165   167   ar
    94   100   102   ar
    95   152   154   ar
    96   152   150   ar
    97    94    93    1
    98   146   149    1
    99   146   145    1
   100   156   154   ar
   101   166   169   ar
   102   166   168   ar
   103   161   162    2
   104   167   168   ar
   105   136   134    1
   106   149   150    1
   107    51    52    1
   108    51    48    1
   109   169   171   ar
   110   154   153   ar
   111    47    48    1
   112   126   127    1
   113   168   170   ar
   114   150   151   ar
   115    93    92   ar
   116    93    91   ar
   117    92    90   ar
   118   171   172   ar
   119    48    49    1
   120   134   133    2
   121   134   135    1
   122   133   132    1
   123   170   172   ar
   124    63    65   ar
   125    63    61   ar
   126   181   179   ar
   127    65    64   ar
   128   131   132    1
   129   131   130    1
   130   153   151   ar
   131    91    89   ar
   132   127   130    1
   133   127   128    1
   134    90    88   ar
   135   180   179   ar
   136    49    50    2
   137    49    56   am
   138    45    44    1
   139   179   178    1
   140    61    60    1
   141    61    62   ar
   142    57    60    1
   143    57    56    1
   144    57    58    1
   145   128   129    2
   146    64    62   ar
   147    89    88   ar
   148    88    87    1
   149    58    59    2
   150    46    44    1
   151    83    84    1
   152    44    43    2
   153   178   177    1
   154    84    87    1
   155    84    85    1
   156    74    72   ar
   157    43    42    1
   158   177   174    1
   159    73    72   ar
   160    72    71    1
   161    85    86    2
   162   173   174    1
   163    42    41    1
   164   174   175    1
   165    71    70    1
   166    41    40    1
   167    70    67    1
   168   175   176    2
   169    40    37    1
   170    67    66    1
   171    67    68    1
   172    37    38    1
   173    37    36    1
   174    39    38    2
   175    69    68    2
