@<TRIPOS>MOLECULE
tmp/1x39A03.pdb
 181 175 0 0 0
SMALL
GASTEIGER

@<TRIPOS>ATOM
      1  N         23.8410   25.2350   24.2350 N.3    54  LEU54      -0.1245
      2  CA        22.8560   25.4620   25.2880 C.3    54  LEU54       0.1561
      3  C         22.5390   26.9440   25.4160 C.2    54  LEU54       0.2260
      4  O         23.2810   27.8000   24.9210 O.2    54  LEU54      -0.2867
      5  CB        23.3480   24.9190   26.6420 C.3    54  LEU54       0.0270
      6  CG        24.2810   25.8290   27.4700 C.3    54  LEU54       0.0019
      7  CD1       24.2070   25.4510   28.9680 C.3    54  LEU54       0.0001
      8  CD2       25.7230   25.7950   26.9640 C.3    54  LEU54       0.0001
      9  N         22.1700   29.0740   28.7220 N.3    56  GLY56      -0.1210
     10  CA        22.2080   29.2160   30.1780 C.3    56  GLY56       0.1956
     11  C         21.0080   30.0490   30.6100 C.2    56  GLY56       0.2612
     12  O         20.2340   30.5170   29.7650 O.2    56  GLY56      -0.2717
     13  N         20.8360   30.2410   31.9150 N.am   57  GLY57      -0.1956
     14  CA        19.6970   31.0490   32.4160 C.3    57  GLY57       0.1869
     15  C         19.7390   32.4430   31.7990 C.2    57  GLY57       0.2309
     16  O         20.7730   33.0980   31.8340 O.2    57  GLY57      -0.2863
     17  N         17.8670   24.7650   30.7260 N.3    95  ASP95      -0.1239
     18  CA        17.2760   24.4890   32.0240 C.3    95  ASP95       0.1674
     19  C         15.7700   24.7170   31.9810 C.2    95  ASP95       0.2266
     20  O         15.2970   25.8140   32.2800 O.2    95  ASP95      -0.2867
     21  CB        17.9220   25.3640   33.1010 C.3    95  ASP95       0.1410
     22  CG        19.3830   25.0560   33.2650 C.2    95  ASP95       0.3668
     23  OD1       20.2090   25.7970   32.6920 O.co2  95  ASP95      -0.2456
     24  OD2       19.6890   24.0320   33.9010 O.co2  95  ASP95      -0.2456
     25  N         17.8180   20.1130   31.0410 N.3   144  PHE144     -0.1241
     26  CA        18.7150   19.7720   32.1520 C.3   144  PHE144      0.1605
     27  C         17.9040   19.5240   33.4330 C.2   144  PHE144      0.2264
     28  O         17.9810   20.3000   34.3860 O.2   144  PHE144     -0.2867
     29  CB        19.7410   20.8850   32.3970 C.3   144  PHE144      0.0534
     30  CG        20.6340   21.1800   31.2140 C.ar  144  PHE144     -0.0203
     31  CD1       20.8120   22.4930   30.7870 C.ar  144  PHE144     -0.0042
     32  CD2       21.3030   20.1550   30.5370 C.ar  144  PHE144     -0.0042
     33  CE1       21.6510   22.7950   29.7100 C.ar  144  PHE144     -0.0003
     34  CE2       22.1320   20.4400   29.4590 C.ar  144  PHE144     -0.0003
     35  CZ        22.2980   21.7720   29.0330 C.ar  144  PHE144     -0.0000
     36  N         20.0190   26.0490   46.6890 N.3   158  ARG158     -0.1245
     37  CA        19.2950   25.2080   45.7500 C.3   158  ARG158      0.1563
     38  C         18.3430   24.2480   46.4520 C.2   158  ARG158      0.2260
     39  O         17.8310   23.3050   45.8380 O.2   158  ARG158     -0.2867
     40  CB        20.2690   24.4260   44.8570 C.3   158  ARG158      0.0307
     41  CG        21.4080   25.2640   44.3050 C.3   158  ARG158      0.0489
     42  CD        22.1670   24.5320   43.1910 C.3   158  ARG158      0.2205
     43  NE        21.3870   24.4720   41.9520 N.pl3 158  ARG158     -0.0865
     44  CZ        21.8990   24.1490   40.7640 C.cat 158  ARG158      0.5346
     45  NH1       21.1160   24.1200   39.6840 N.pl3 158  ARG158      0.1354
     46  NH2       23.2030   23.8600   40.6560 N.pl3 158  ARG158      0.1354
     47  N         20.5950   15.2070   37.7140 N.3   206  LYS206     -0.1231
     48  CA        21.6620   16.0960   38.1980 C.3   206  LYS206      0.1693
     49  C         21.5040   16.4250   39.6850 C.2   206  LYS206      0.2592
     50  O         20.3950   16.3260   40.2170 O.2   206  LYS206     -0.2718
     51  CB        21.6970   17.3860   37.3490 C.3   206  LYS206      0.0285
     52  CG        20.5060   18.3530   37.5420 C.3   206  LYS206      0.0035
     53  CD        20.6200   19.5860   36.5850 C.3   206  LYS206      0.0206
     54  CE        19.6790   20.7370   37.0220 C.3   206  LYS206      0.1093
     55  NZ        19.7220   21.8950   36.0280 N.3   206  LYS206     -0.1314
     56  N         22.5890   16.7870   40.3850 N.am  207  HIS207     -0.1976
     57  CA        23.9670   16.7930   39.8620 C.3   207  HIS207      0.1656
     58  C         24.7200   15.6670   40.5810 C.2   207  HIS207      0.2291
     59  O         24.6660   15.5610   41.7970 O.2   207  HIS207     -0.2864
     60  CB        24.6400   18.1450   40.1430 C.3   207  HIS207      0.0771
     61  CG        23.7980   19.3310   39.7680 C.ar  207  HIS207      0.0820
     62  ND1       22.7930   19.8140   40.5790 N.ar  207  HIS207     -0.2267
     63  CD2       23.8100   20.1260   38.6700 C.ar  207  HIS207      0.1154
     64  CE1       22.2080   20.8450   39.9880 C.ar  207  HIS207      0.1986
     65  NE2       22.8140   21.0620   38.8340 N.ar  207  HIS207     -0.2212
     66  N         28.2270   24.1990   45.9770 N.3   220  GLU220     -0.1245
     67  CA        29.4380   23.7230   45.2780 C.3   220  GLU220      0.1567
     68  C         30.5570   23.2390   46.2290 C.2   220  GLU220      0.2260
     69  O         31.6830   22.9750   45.7890 O.2   220  GLU220     -0.2867
     70  CB        29.9840   24.7870   44.3050 C.3   220  GLU220      0.0388
     71  CG        28.9250   25.4320   43.3910 C.3   220  GLU220      0.1160
     72  CD        29.5120   26.3900   42.3560 C.2   220  GLU220      0.3649
     73  OE1       30.7560   26.4230   42.1860 O.co2 220  GLU220     -0.2457
     74  OE2       28.7150   27.1090   41.6970 O.co2 220  GLU220     -0.2457
     75  N         24.3860   14.9240   34.6390 N.3   250  MET250     -0.1245
     76  CA        25.3000   16.0620   34.8170 C.3   250  MET250      0.1570
     77  C         26.0590   15.9310   36.1170 C.2   250  MET250      0.2261
     78  O         25.4640   15.6470   37.1680 O.2   250  MET250     -0.2867
     79  CB        24.5540   17.4040   34.8070 C.3   250  MET250      0.0387
     80  CG        25.4680   18.6380   34.8420 C.3   250  MET250      0.0595
     81  SD        24.5510   20.2170   34.9070 S.3   250  MET250     -0.1393
     82  CE        23.5840   20.1100   33.3880 C.3   250  MET250      0.0692
     83  N         29.3190   20.3370   40.6930 N.3   253  TYR253     -0.1241
     84  CA        30.4340   21.1800   41.1500 C.3   253  TYR253      0.1605
     85  C         31.0000   20.7300   42.5010 C.2   253  TYR253      0.2264
     86  O         32.1620   20.9910   42.7980 O.2   253  TYR253     -0.2867
     87  CB        29.9770   22.6170   41.3540 C.3   253  TYR253      0.0534
     88  CG        29.6260   23.4380   40.1290 C.ar  253  TYR253     -0.0201
     89  CD1       28.3660   24.0280   40.0170 C.ar  253  TYR253     -0.0009
     90  CD2       30.5710   23.6810   39.1230 C.ar  253  TYR253     -0.0009
     91  CE1       28.0320   24.8250   38.9310 C.ar  253  TYR253      0.0417
     92  CE2       30.2480   24.4710   38.0190 C.ar  253  TYR253      0.0417
     93  CZ        28.9810   25.0380   37.9310 C.ar  253  TYR253      0.1957
     94  OH        28.6600   25.8220   36.8520 O.3   253  TYR253     -0.2866
     95  N         29.0160   20.2700   34.4530 N.3   285  ASP285     -0.1225
     96  CA        28.3160   21.5260   34.7100 C.3   285  ASP285      0.1805
     97  C         29.1450   22.6480   34.0640 C.2   285  ASP285      0.2598
     98  O         30.2030   22.4030   33.4350 O.2   285  ASP285     -0.2718
     99  CB        28.0950   21.7520   36.2200 C.3   285  ASP285      0.1424
    100  CG        26.8530   22.6170   36.5420 C.2   285  ASP285      0.3668
    101  OD1       26.4930   23.5190   35.7470 O.co2 285  ASP285     -0.2456
    102  OD2       26.2260   22.3840   37.6050 O.co2 285  ASP285     -0.2456
    103  N         28.6590   23.8710   34.2070 N.am  286  TRP286     -0.1962
    104  CA        29.1440   25.0250   33.4390 C.3   286  TRP286      0.1771
    105  C         30.4840   25.5020   33.9890 C.2   286  TRP286      0.2619
    106  O         30.5540   25.9520   35.1250 O.2   286  TRP286     -0.2715
    107  CB        28.0560   26.0880   33.5560 C.3   286  TRP286      0.0590
    108  CG        28.2810   27.4910   33.0840 C.ar  286  TRP286      0.0006
    109  CD1       29.1590   28.4210   33.5900 C.ar  286  TRP286      0.0946
    110  CD2       27.4980   28.1730   32.1020 C.ar  286  TRP286      0.0152
    111  NE1       28.9940   29.6270   32.9400 N.ar  286  TRP286     -0.2442
    112  CE2       27.9770   29.5010   32.0280 C.ar  286  TRP286      0.0810
    113  CE3       26.4510   27.7760   31.2510 C.ar  286  TRP286      0.0012
    114  CZ2       27.4440   30.4420   31.1380 C.ar  286  TRP286      0.0191
    115  CZ3       25.9260   28.7060   30.3620 C.ar  286  TRP286      0.0001
    116  CH2       26.4200   30.0240   30.3150 C.ar  286  TRP286      0.0015
    117  N         31.5470   25.3800   33.1820 N.am  287  GLU287     -0.1977
    118  CA        32.9160   25.5830   33.6660 C.3   287  GLU287      0.1602
    119  C         33.2280   24.6720   34.8540 C.2   287  GLU287      0.2287
    120  O         34.0770   24.9830   35.6880 O.2   287  GLU287     -0.2864
    121  CB        33.1800   27.0460   34.0260 C.3   287  GLU287      0.0415
    122  CG        33.0770   27.9620   32.8180 C.3   287  GLU287      0.1163
    123  CD        33.1390   29.4290   33.1750 C.2   287  GLU287      0.3649
    124  OE1       33.6340   29.7680   34.2700 O.co2 287  GLU287     -0.2457
    125  OE2       32.6890   30.2430   32.3410 O.co2 287  GLU287     -0.2457
    126  N         36.6040   24.4820   37.4980 N.3   291  ARG291     -0.1245
    127  CA        36.4670   24.6530   38.9310 C.3   291  ARG291      0.1563
    128  C         36.9950   23.4550   39.7190 C.2   291  ARG291      0.2260
    129  O         36.8650   23.4140   40.9400 O.2   291  ARG291     -0.2867
    130  CB        35.0090   24.9900   39.2690 C.3   291  ARG291      0.0307
    131  CG        34.5970   26.3180   38.6430 C.3   291  ARG291      0.0489
    132  CD        33.0980   26.4840   38.5130 C.3   291  ARG291      0.2205
    133  NE        32.4820   27.0770   39.6990 N.pl3 291  ARG291     -0.0865
    134  CZ        32.5750   28.3610   40.0400 C.cat 291  ARG291      0.5346
    135  NH1       31.9640   28.7980   41.1330 N.pl3 291  ARG291      0.1354
    136  NH2       33.2830   29.2090   39.3010 N.pl3 291  ARG291      0.1354
    137  N         30.4050   21.1370   29.0170 N.3   316  MET316     -0.1245
    138  CA        29.6970   22.4180   28.9280 C.3   316  MET316      0.1570
    139  C         30.7580   23.4750   29.1530 C.2   316  MET316      0.2261
    140  O         31.0560   23.8390   30.3060 O.2   316  MET316     -0.2867
    141  CB        28.6260   22.4900   30.0280 C.3   316  MET316      0.0387
    142  CG        27.7240   23.7140   29.9820 C.3   316  MET316      0.0595
    143  SD        26.5290   23.6960   31.3520 S.3   316  MET316     -0.1393
    144  CE        25.5460   22.2630   30.9310 C.3   316  MET316      0.0692
    145  N         15.3890   30.7980   38.3400 N.3   430  TRP430     -0.1241
    146  CA        15.2000   30.0840   37.0720 C.3   430  TRP430      0.1605
    147  C         13.8490   30.4430   36.4420 C.2   430  TRP430      0.2264
    148  O         13.0670   29.5650   36.0880 O.2   430  TRP430     -0.2867
    149  CB        15.2540   28.5620   37.2770 C.3   430  TRP430      0.0550
    150  CG        16.5790   27.9970   37.6620 C.ar  430  TRP430      0.0003
    151  CD1       16.9120   27.4250   38.8660 C.ar  430  TRP430      0.0946
    152  CD2       17.7530   27.9150   36.8420 C.ar  430  TRP430      0.0152
    153  NE1       18.2120   26.9970   38.8410 N.ar  430  TRP430     -0.2442
    154  CE2       18.7580   27.2870   37.6160 C.ar  430  TRP430      0.0810
    155  CE3       18.0550   28.3130   35.5280 C.ar  430  TRP430      0.0012
    156  CZ2       20.0430   27.0420   37.1200 C.ar  430  TRP430      0.0191
    157  CZ3       19.3390   28.0700   35.0320 C.ar  430  TRP430      0.0001
    158  CH2       20.3170   27.4480   35.8280 C.ar  430  TRP430      0.0015
    159  N         18.2940   33.8940   34.9720 N.3   434  TRP434     -0.1241
    160  CA        18.9260   32.8640   35.8070 C.3   434  TRP434      0.1605
    161  C         18.4920   32.9890   37.2750 C.2   434  TRP434      0.2264
    162  O         18.0430   32.0090   37.8940 O.2   434  TRP434     -0.2867
    163  CB        20.4390   32.9790   35.6660 C.3   434  TRP434      0.0550
    164  CG        21.2380   32.0080   36.4700 C.ar  434  TRP434      0.0003
    165  CD1       20.9950   30.6760   36.6510 C.ar  434  TRP434      0.0946
    166  CD2       22.4520   32.2960   37.1610 C.ar  434  TRP434      0.0152
    167  NE1       21.9860   30.1140   37.4360 N.ar  434  TRP434     -0.2442
    168  CE2       22.8900   31.0930   37.7630 C.ar  434  TRP434      0.0810
    169  CE3       23.2110   33.4610   37.3390 C.ar  434  TRP434      0.0012
    170  CZ2       24.0610   31.0210   38.5200 C.ar  434  TRP434      0.0191
    171  CZ3       24.3870   33.3850   38.0990 C.ar  434  TRP434      0.0001
    172  CH2       24.7900   32.1740   38.6770 C.ar  434  TRP434      0.0015
    173  N         21.3380   29.1530   43.0310 N.3   491  GLU491     -0.1245
    174  CA        22.6990   28.7140   43.3270 C.3   491  GLU491      0.1567
    175  C         23.3280   29.5430   44.4650 C.2   491  GLU491      0.2260
    176  O         22.6670   29.7560   45.4810 O.2   491  GLU491     -0.2867
    177  CB        23.5420   28.6580   42.0420 C.3   491  GLU491      0.0388
    178  CG        23.1030   27.5110   41.1290 C.3   491  GLU491      0.1160
    179  CD        23.6510   27.5990   39.7230 C.2   491  GLU491      0.3649
    180  OE1       24.8840   27.5240   39.5480 O.co2 491  GLU491     -0.2457
    181  OE2       22.8330   27.7190   38.7760 O.co2 491  GLU491     -0.2457
@<TRIPOS>BOND
     1     1     2    1
     2     4     3    2
     3     2     3    1
     4     2     5    1
     5     5     6    1
     6     8     6    1
     7     6     7    1
     8     9    10    1
     9   138   137    1
    10   138   139    1
    11   138   141    1
    12    35    34   ar
    13    35    33   ar
    14   139   140    2
    15    34    32   ar
    16    33    31   ar
    17    12    11    2
    18   142   141    1
    19   142   143    1
    20    10    11    1
    21   116   115   ar
    22   116   114   ar
    23   115   113   ar
    24    32    30   ar
    25    11    13   am
    26    17    18    1
    27    31    30   ar
    28   144   143    1
    29    25    26    1
    30   114   112   ar
    31    30    29    1
    32   113   110   ar
    33    15    16    2
    34    15    14    1
    35    13    14    1
    36    19    18    1
    37    19    20    2
    38    18    21    1
    39   112   110   ar
    40   112   111   ar
    41   110   108   ar
    42    26    29    1
    43    26    27    1
    44   125   123   ar
    45    23    22   ar
    46   122   123    1
    47   122   121    1
    48   111   109   ar
    49   108   107    1
    50   108   109   ar
    51    21    22    1
    52   123   124   ar
    53   117   118    1
    54   117   105   am
    55    22    24   ar
    56    82    81    1
    57    27    28    2
    58    98    97    2
    59   104   107    1
    60   104   105    1
    61   104   103    1
    62   118   121    1
    63   118   119    1
    64   105   106    2
    65    97   103   am
    66    97    96    1
    67    95    96    1
    68    75    76    1
    69    96    99    1
    70    79    76    1
    71    79    80    1
    72    76    77    1
    73    80    81    1
    74   119   120    2
    75   159   160    1
    76   157   155   ar
    77   157   158   ar
    78   155   152   ar
    79   163   160    1
    80   163   164    1
    81   101   100   ar
    82   160   161    1
    83   158   156   ar
    84    55    54    1
    85   148   147    2
    86    77    78    2
    87    99   100    1
    88   147   146    1
    89   164   165   ar
    90   164   166   ar
    91   100   102   ar
    92    53    54    1
    93    53    52    1
    94   165   167   ar
    95   152   154   ar
    96   152   150   ar
    97    94    93    1
    98   146   149    1
    99   146   145    1
   100   156   154   ar
   101   166   169   ar
   102   166   168   ar
   103   161   162    2
   104   149   150    1
   105   169   171   ar
   106    51    52    1
   107    51    48    1
   108   167   168   ar
   109   126   127    1
   110   154   153   ar
   111   150   151   ar
   112    47    48    1
   113   168   170   ar
   114    93    92   ar
   115    93    91   ar
   116    92    90   ar
   117   171   172   ar
   118    48    49    1
   119   132   131    1
   120   132   133    1
   121   170   172   ar
   122   131   130    1
   123    63    65   ar
   124    63    61   ar
   125   181   179   ar
   126    65    64   ar
   127   153   151   ar
   128   127   130    1
   129   127   128    1
   130    91    89   ar
   131    90    88   ar
   132   136   134    1
   133   180   179   ar
   134    45    44    1
   135    49    50    2
   136    49    56   am
   137   133   134    2
   138   128   129    2
   139   179   178    1
   140    61    60    1
   141    61    62   ar
   142    57    60    1
   143    57    56    1
   144    57    58    1
   145    64    62   ar
   146    89    88   ar
   147   134   135    1
   148    88    87    1
   149    58    59    2
   150    46    44    1
   151    83    84    1
   152    44    43    2
   153   178   177    1
   154    84    87    1
   155    84    85    1
   156    74    72   ar
   157    43    42    1
   158   177   174    1
   159    73    72   ar
   160    72    71    1
   161    85    86    2
   162   173   174    1
   163    42    41    1
   164   174   175    1
   165    71    70    1
   166    70    67    1
   167    41    40    1
   168   175   176    2
   169    40    37    1
   170    67    66    1
   171    67    68    1
   172    37    38    1
   173    37    36    1
   174    69    68    2
   175    39    38    2
