@<TRIPOS>MOLECULE
tmp/1x39A01.pdb
 131 131 0 0 0
SMALL
GASTEIGER

@<TRIPOS>ATOM
      1  N          8.2960   37.2010   42.0070 N.3   425  TYR425     -0.1241
      2  CA         8.4920   36.6560   43.3520 C.3   425  TYR425      0.1605
      3  C          7.8180   35.2980   43.5450 C.2   425  TYR425      0.2264
      4  O          8.3890   34.4130   44.1750 O.2   425  TYR425     -0.2867
      5  CB         7.9670   37.6400   44.4020 C.3   425  TYR425      0.0534
      6  CG         8.8670   38.8180   44.6980 C.ar  425  TYR425     -0.0201
      7  CD1        8.5860   39.6520   45.7800 C.ar  425  TYR425     -0.0009
      8  CD2        9.9960   39.1060   43.9170 C.ar  425  TYR425     -0.0009
      9  CE1        9.3960   40.7470   46.0780 C.ar  425  TYR425      0.0417
     10  CE2       10.8270   40.2050   44.2220 C.ar  425  TYR425      0.0417
     11  CZ        10.5020   41.0230   45.2970 C.ar  425  TYR425      0.1957
     12  OH        11.2980   42.1070   45.6260 O.3   425  TYR425     -0.2866
     13  N         13.5150   37.2600   38.8880 N.3   437  ASP437     -0.1225
     14  CA        13.3870   38.7110   38.7620 C.3   437  ASP437      0.1805
     15  C         12.1190   39.1680   39.4780 C.2   437  ASP437      0.2598
     16  O         11.3740   38.3400   40.0050 O.2   437  ASP437     -0.2718
     17  CB        13.3740   39.1000   37.2740 C.3   437  ASP437      0.1424
     18  CG        13.7010   40.5700   37.0200 C.2   437  ASP437      0.3668
     19  OD1       14.0110   41.3400   37.9630 O.co2 437  ASP437     -0.2456
     20  OD2       13.6490   40.9540   35.8290 O.co2 437  ASP437     -0.2456
     21  N         11.8920   40.4760   39.5040 N.am  438  THR438     -0.1953
     22  CA        10.7480   41.0640   40.2130 C.3   438  THR438      0.1897
     23  C          9.7110   41.6020   39.2260 C.2   438  THR438      0.2313
     24  O         10.0700   42.1070   38.1480 O.2   438  THR438     -0.2863
     25  CB        11.2180   42.1960   41.1650 C.3   438  THR438      0.1794
     26  OG1       10.1010   42.7320   41.8840 O.3   438  THR438     -0.2208
     27  CG2       11.9030   43.3190   40.3980 C.3   438  THR438      0.0378
     28  N         12.9330   36.6240   48.2800 N.3   487  HIS487     -0.1227
     29  CA        13.0830   37.1140   46.9100 C.3   487  HIS487      0.1737
     30  C         13.7220   36.0170   46.0680 C.2   487  HIS487      0.2438
     31  O         14.3080   35.0820   46.6280 O.2   487  HIS487     -0.2733
     32  CB        13.8960   38.4030   46.8860 C.3   487  HIS487      0.0758
     33  CG        13.2760   39.5060   47.6890 C.ar  487  HIS487      0.0818
     34  ND1       13.9800   40.6110   48.1090 N.ar  487  HIS487     -0.2268
     35  CD2       12.0180   39.6560   48.1680 C.ar  487  HIS487      0.1154
     36  CE1       13.1800   41.4020   48.8040 C.ar  487  HIS487      0.1986
     37  NE2       11.9840   40.8450   48.8540 N.ar  487  HIS487     -0.2212
     38  N         13.5880   36.1030   44.7340 N.am  488  PRO488     -0.2718
     39  CA        14.1640   35.0690   43.8580 C.3   488  PRO488      0.1535
     40  C         15.6900   34.9430   43.9590 C.2   488  PRO488      0.2598
     41  O         16.3990   35.9480   44.0980 O.2   488  PRO488     -0.2715
     42  CB        13.7580   35.5400   42.4550 C.3   488  PRO488      0.0310
     43  CG        12.5290   36.3590   42.6880 C.3   488  PRO488      0.0237
     44  CD        12.8320   37.1040   43.9510 C.3   488  PRO488      0.0939
     45  N         16.1810   33.7070   43.9020 N.am  489  TYR489     -0.1974
     46  CA        17.6210   33.4370   43.9720 C.3   489  TYR489      0.1639
     47  C         17.9040   32.0950   43.3300 C.2   489  TYR489      0.2290
     48  O         17.0130   31.2320   43.2190 O.2   489  TYR489     -0.2864
     49  CB        18.1480   33.4290   45.4210 C.3   489  TYR489      0.0560
     50  CG        17.3960   32.4720   46.3380 C.ar  489  TYR489     -0.0198
     51  CD1       17.6540   31.0990   46.3250 C.ar  489  TYR489     -0.0009
     52  CD2       16.4060   32.9480   47.1970 C.ar  489  TYR489     -0.0009
     53  CE1       16.9570   30.2300   47.1720 C.ar  489  TYR489      0.0417
     54  CE2       15.6910   32.0870   48.0330 C.ar  489  TYR489      0.0417
     55  CZ        15.9660   30.7370   48.0110 C.ar  489  TYR489      0.1957
     56  OH        15.2580   29.8960   48.8420 O.3   489  TYR489     -0.2866
     57  N         23.9640   32.6350   45.2110 N.3   493  LYS493     -0.1231
     58  CA        23.1970   33.8060   45.6630 C.3   493  LYS493      0.1693
     59  C         22.1090   33.4540   46.6710 C.2   493  LYS493      0.2593
     60  O         21.6880   34.3080   47.4580 O.2   493  LYS493     -0.2718
     61  CB        22.5650   34.5510   44.4820 C.3   493  LYS493      0.0285
     62  CG        23.5400   35.3420   43.6300 C.3   493  LYS493      0.0035
     63  CD        23.9160   36.6550   44.2870 C.3   493  LYS493      0.0206
     64  CE        24.8630   37.4570   43.4050 C.3   493  LYS493      0.1093
     65  NZ        24.2090   37.9890   42.1710 N.3   493  LYS493     -0.1314
     66  N         21.6530   32.2030   46.6460 N.am  494  GLY494     -0.1942
     67  CA        20.6410   31.7250   47.5880 C.3   494  GLY494      0.2014
     68  C         21.1610   31.1320   48.8930 C.2   494  GLY494      0.2639
     69  O         20.3760   30.8680   49.8170 O.2   494  GLY494     -0.2714
     70  N         22.4680   30.8940   48.9720 N.am  495  ASP495     -0.1957
     71  CA        23.0690   30.4020   50.2230 C.3   495  ASP495      0.1840
     72  C         22.7600   31.4300   51.3180 C.2   495  ASP495      0.2622
     73  O         22.9060   32.6410   51.1060 O.2   495  ASP495     -0.2715
     74  CB        24.5810   30.2190   50.0940 C.3   495  ASP495      0.1450
     75  CG        24.9740   29.0090   49.2400 C.2   495  ASP495      0.3671
     76  OD1       24.0920   28.2670   48.7550 O.co2 495  ASP495     -0.2456
     77  OD2       26.1950   28.8090   49.0520 O.co2 495  ASP495     -0.2456
     78  N         22.2990   30.9500   52.4690 N.am  496  ASN496     -0.1958
     79  CA        21.7350   31.8420   53.4850 C.3   496  ASN496      0.1819
     80  C         21.8230   31.2120   54.8650 C.2   496  ASN496      0.2621
     81  O         21.1570   30.2190   55.1270 O.2   496  ASN496     -0.2715
     82  CB        20.2720   32.1470   53.1440 C.3   496  ASN496      0.1195
     83  CG        19.6620   33.2330   54.0290 C.2   496  ASN496      0.2630
     84  OD1       20.0260   33.3980   55.1940 O.2   496  ASN496     -0.2716
     85  ND2       18.7110   33.9700   53.4680 N.am  496  ASN496     -0.0877
     86  N         22.6280   31.8070   55.7460 N.am  497  LEU497     -0.1963
     87  CA        22.8750   31.2290   57.0670 C.3   497  LEU497      0.1728
     88  C         21.8630   31.6360   58.1290 C.2   497  LEU497      0.2616
     89  O         21.8540   31.0540   59.2270 O.2   497  LEU497     -0.2715
     90  CB        24.2850   31.5700   57.5610 C.3   497  LEU497      0.0311
     91  CG        25.4660   31.0860   56.7210 C.3   497  LEU497      0.0022
     92  CD1       26.7640   31.5680   57.3520 C.3   497  LEU497      0.0001
     93  CD2       25.4660   29.5730   56.5750 C.3   497  LEU497      0.0001
     94  N         21.0350   32.6320   57.8200 N.am  498  ASN498     -0.1972
     95  CA        20.0910   33.1660   58.8130 C.3   498  ASN498      0.1688
     96  C         18.6380   32.7680   58.5550 C.2   498  ASN498      0.2292
     97  O         17.8380   32.6590   59.4980 O.2   498  ASN498     -0.2864
     98  CB        20.2400   34.6870   58.9680 C.3   498  ASN498      0.1181
     99  CG        19.8640   35.4540   57.7070 C.2   498  ASN498      0.2629
    100  OD1       18.6820   35.5750   57.3740 O.2   498  ASN498     -0.2716
    101  ND2       20.8790   35.9950   57.0110 N.am  498  ASN498     -0.0877
    102  N         15.9850   34.2010   57.5280 N.3   500  THR500     -0.1218
    103  CA        14.8450   35.0370   57.8980 C.3   500  THR500      0.1862
    104  C         14.4230   35.8520   56.6800 C.2   500  THR500      0.2287
    105  O         15.2650   36.2990   55.8890 O.2   500  THR500     -0.2866
    106  CB        15.0820   35.9190   59.1590 C.3   500  THR500      0.1770
    107  OG1       15.4310   37.2580   58.7840 O.3   500  THR500     -0.2211
    108  CG2       16.1370   35.3230   60.0650 C.3   500  THR500      0.0375
    109  N         13.1850   38.7470   54.0940 N.3   502  PRO502     -0.2102
    110  CA        13.4720   40.1700   54.0270 C.3   502  PRO502      0.1504
    111  C         12.3060   41.0160   54.5130 C.2   502  PRO502      0.2576
    112  O         11.1550   40.5750   54.5030 O.2   502  PRO502     -0.2718
    113  CB        13.7540   40.4190   52.5330 C.3   502  PRO502      0.0282
    114  CG        13.1780   39.2720   51.8180 C.3   502  PRO502      0.0208
    115  CD        13.2030   38.1110   52.7640 C.3   502  PRO502      0.0893
    116  N         12.6260   42.2160   54.9670 N.am  503  GLU503     -0.1967
    117  CA        11.6110   43.1680   55.3810 C.3   503  GLU503      0.1718
    118  C         11.4030   44.2050   54.2760 C.2   503  GLU503      0.2458
    119  O         12.3070   44.4240   53.4670 O.2   503  GLU503     -0.2730
    120  CB        12.0010   43.8000   56.7190 C.3   503  GLU503      0.0428
    121  CG        11.8850   42.8040   57.8780 C.3   503  GLU503      0.1163
    122  CD        10.4710   42.2500   58.0270 C.2   503  GLU503      0.3649
    123  OE1        9.5650   43.0590   58.3450 O.co2 503  GLU503     -0.2457
    124  OE2       10.2760   41.0160   57.8060 O.co2 503  GLU503     -0.2457
    125  N         10.1960   44.8070   54.1980 N.am  504  PRO504     -0.2727
    126  CA         9.0410   44.5220   55.0450 C.3   504  PRO504      0.1402
    127  C          8.3940   43.1840   54.6770 C.2   504  PRO504      0.2269
    128  O          8.1060   42.9130   53.4990 O.2   504  PRO504     -0.2865
    129  CB         8.0950   45.6910   54.7460 C.3   504  PRO504      0.0296
    130  CG         8.4110   46.0610   53.3420 C.3   504  PRO504      0.0237
    131  CD         9.9020   45.8770   53.2240 C.3   504  PRO504      0.0939
@<TRIPOS>BOND
     1    20    18   ar
     2    18    17    1
     3    18    19   ar
     4    17    14    1
     5    24    23    2
     6    14    13    1
     7    14    15    1
     8    23    22    1
     9    15    21   am
    10    15    16    2
    11    21    22    1
    12    22    25    1
    13    27    25    1
    14    25    26    1
    15     1     2    1
    16    65    64    1
    17    42    43    1
    18    42    39    1
    19    43    44    1
    20    48    47    2
    21    47    46    1
    22     2     3    1
    23     2     5    1
    24    64    63    1
    25     3     4    2
    26    62    63    1
    27    62    61    1
    28    39    40    1
    29    39    38    1
    30    45    40   am
    31    45    46    1
    32     8    10   ar
    33     8     6   ar
    34    44    38    1
    35    40    41    2
    36    46    49    1
    37    10    11   ar
    38     5     6    1
    39    61    58    1
    40     6     7   ar
    41    38    30   am
    42    57    58    1
    43    11    12    1
    44    11     9   ar
    45    49    50    1
    46    58    59    1
    47     7     9   ar
    48    30    31    2
    49    30    29    1
    50    51    50   ar
    51    51    53   ar
    52    50    52   ar
    53    66    59   am
    54    66    67    1
    55    59    60    2
    56    32    29    1
    57    32    33    1
    58    29    28    1
    59    53    55   ar
    60    52    54   ar
    61    67    68    1
    62    33    34   ar
    63    33    35   ar
    64    55    54   ar
    65    55    56    1
    66    34    36   ar
    67    35    37   ar
    68    76    75   ar
    69    36    37   ar
    70    68    70   am
    71    68    69    2
    72    70    71    1
    73    77    75   ar
    74    75    74    1
    75    74    71    1
    76    71    72    1
    77    73    72    2
    78    72    78   am
    79   114   113    1
    80   114   115    1
    81    78    79    1
    82   113   110    1
    83   115   109    1
    84    82    79    1
    85    82    83    1
    86   131   130    1
    87   131   125    1
    88   130   129    1
    89   119   118    2
    90    85    83   am
    91    79    80    1
    92   128   127    2
    93   110   109    1
    94   110   111    1
    95    83    84    2
    96   125   118   am
    97   125   126    1
    98   118   117    1
    99   112   111    2
   100   111   116   am
   101   127   126    1
   102   129   126    1
   103    80    81    2
   104    80    86   am
   105   116   117    1
   106   117   120    1
   107    86    87    1
   108   105   104    2
   109    93    91    1
   110   104   103    1
   111   120   121    1
   112    91    92    1
   113    91    90    1
   114   101    99   am
   115    87    90    1
   116    87    88    1
   117   100    99    2
   118   102   103    1
   119    99    98    1
   120   124   122   ar
   121    94    88   am
   122    94    95    1
   123   121   122    1
   124   103   106    1
   125   122   123   ar
   126    88    89    2
   127    96    95    1
   128    96    97    2
   129   107   106    1
   130    95    98    1
   131   106   108    1
