@<TRIPOS>MOLECULE
tmp/1x39A02.pdb
 96 92 0 0 0
SMALL
GASTEIGER

@<TRIPOS>ATOM
      1  N          5.9930   18.2750   48.2890 N.3   117  ALA117     -0.1231
      2  CA         4.8780   18.4150   49.2350 C.3   117  ALA117      0.1694
      3  C          3.5860   17.7460   48.7520 C.2   117  ALA117      0.2593
      4  O          2.7120   17.4100   49.5640 O.2   117  ALA117     -0.2718
      5  CB         4.6330   19.9040   49.5580 C.3   117  ALA117      0.0304
      6  N          3.4530   17.5570   47.4380 N.am  118  THR118     -0.1939
      7  CA         2.2320   16.9590   46.8900 C.3   118  THR118      0.2028
      8  C          2.1940   15.4420   47.1030 C.2   118  THR118      0.2642
      9  O          1.1190   14.8490   47.0800 O.2   118  THR118     -0.2714
     10  CB         2.0830   17.1950   45.3750 C.3   118  THR118      0.1808
     11  OG1        3.0440   16.3920   44.6770 O.3   118  THR118     -0.2208
     12  CG2        2.3160   18.6580   45.0080 C.3   118  THR118      0.0379
     13  N          3.3650   14.8240   47.2710 N.am  119  ARG119     -0.1963
     14  CA         3.5040   13.3540   47.3140 C.3   119  ARG119      0.1729
     15  C          2.7750   12.6610   46.1560 C.2   119  ARG119      0.2616
     16  O          2.1890   11.5780   46.3320 O.2   119  ARG119     -0.2715
     17  CB         2.9970   12.7900   48.6430 C.3   119  ARG119      0.0348
     18  CG         3.6170   13.4050   49.8770 C.3   119  ARG119      0.0492
     19  CD         5.1050   13.0790   50.0290 C.3   119  ARG119      0.2205
     20  NE         5.4850   13.2240   51.4250 N.pl3 119  ARG119     -0.0865
     21  CZ         5.6770   14.3850   52.0530 C.cat 119  ARG119      0.5346
     22  NH1        5.5830   15.5340   51.3930 N.pl3 119  ARG119      0.1354
     23  NH2        5.9790   14.3930   53.3520 N.pl3 119  ARG119      0.1354
     24  N          2.7920   13.2990   44.9900 N.am  120  ASP120     -0.1971
     25  CA         2.0210   12.8230   43.8490 C.3   120  ASP120      0.1709
     26  C          2.9290   12.6340   42.6340 C.2   120  ASP120      0.2293
     27  O          3.0420   13.5370   41.7870 O.2   120  ASP120     -0.2864
     28  CB         0.8720   13.7930   43.5410 C.3   120  ASP120      0.1436
     29  CG        -0.1300   13.2300   42.5270 C.2   120  ASP120      0.3671
     30  OD1        0.1880   12.2480   41.8230 O.co2 120  ASP120     -0.2456
     31  OD2       -1.2430   13.7890   42.4390 O.co2 120  ASP120     -0.2456
     32  N         -1.9200   21.6670   45.2350 N.3   387  LYS387     -0.1245
     33  CA        -1.5320   20.4430   45.9470 C.3   387  LYS387      0.1561
     34  C         -0.2360   20.6210   46.7450 C.2   387  LYS387      0.2260
     35  O          0.0150   19.8770   47.7010 O.2   387  LYS387     -0.2867
     36  CB        -1.4170   19.2640   44.9690 C.3   387  LYS387      0.0271
     37  CG        -2.7750   18.8220   44.4380 C.3   387  LYS387      0.0035
     38  CD        -2.6480   17.6290   43.5020 C.3   387  LYS387      0.0206
     39  CE        -4.0250   17.1180   43.1200 C.3   387  LYS387      0.1093
     40  NZ        -3.9020   15.9480   42.1980 N.3   387  LYS387     -0.1314
     41  N         -6.9700   21.6480   51.5200 N.3   563  PHE563     -0.1227
     42  CA        -5.5190   21.5480   51.6820 C.3   563  PHE563      0.1736
     43  C         -5.1450   20.0950   51.8810 C.2   563  PHE563      0.2596
     44  O         -5.7830   19.3920   52.6800 O.2   563  PHE563     -0.2718
     45  CB        -5.0450   22.3460   52.8980 C.3   563  PHE563      0.0547
     46  CG        -4.9770   23.8280   52.6580 C.ar  563  PHE563     -0.0202
     47  CD1       -6.0580   24.6440   52.9840 C.ar  563  PHE563     -0.0042
     48  CD2       -3.8350   24.4050   52.1000 C.ar  563  PHE563     -0.0042
     49  CE1       -6.0040   26.0320   52.7630 C.ar  563  PHE563     -0.0003
     50  CE2       -3.7700   25.7920   51.8740 C.ar  563  PHE563     -0.0003
     51  CZ        -4.8720   26.6040   52.2140 C.ar  563  PHE563     -0.0000
     52  N         -4.1140   19.6480   51.1690 N.am  564  THR564     -0.1953
     53  CA        -3.6620   18.2510   51.2540 C.3   564  THR564      0.1897
     54  C         -2.1280   18.1190   51.3330 C.2   564  THR564      0.2313
     55  O         -1.6090   17.0580   51.6830 O.2   564  THR564     -0.2863
     56  CB        -4.1760   17.4080   50.0470 C.3   564  THR564      0.1794
     57  OG1       -3.8000   18.0440   48.8200 O.3   564  THR564     -0.2208
     58  CG2       -5.6990   17.2650   50.0780 C.3   564  THR564      0.0378
     59  N          1.7410   18.0880   52.3680 N.3   566  ARG566     -0.1245
     60  CA         2.4490   17.7450   53.6040 C.3   566  ARG566      0.1563
     61  C          3.9220   18.1180   53.5010 C.2   566  ARG566      0.2260
     62  O          4.5230   17.9460   52.4480 O.2   566  ARG566     -0.2867
     63  CB         2.3010   16.2500   53.8950 C.3   566  ARG566      0.0307
     64  CG         0.8620   15.8400   54.2170 C.3   566  ARG566      0.0489
     65  CD         0.7600   14.4050   54.7260 C.3   566  ARG566      0.2205
     66  NE         1.1750   13.4190   53.7310 N.pl3 566  ARG566     -0.0865
     67  CZ         0.4000   12.9660   52.7430 C.cat 566  ARG566      0.5346
     68  NH1        0.8750   12.0620   51.8890 N.pl3 566  ARG566      0.1354
     69  NH2       -0.8540   13.4040   52.6040 N.pl3 566  ARG566      0.1354
     70  N         -5.3640   19.9230   57.2790 N.3   598  THR598     -0.1203
     71  CA        -6.2650   19.7690   56.1350 C.3   598  THR598      0.1994
     72  C         -7.5320   20.6190   56.2680 C.2   598  THR598      0.2619
     73  O         -7.9030   21.0640   57.3680 O.2   598  THR598     -0.2717
     74  CB        -6.6480   18.2880   55.8900 C.3   598  THR598      0.1784
     75  OG1       -7.2850   17.7580   57.0550 O.3   598  THR598     -0.2211
     76  CG2       -5.4130   17.4360   55.5590 C.3   598  THR598      0.0376
     77  N         -8.1790   20.8590   55.1310 N.am  599  THR599     -0.1938
     78  CA        -9.5180   21.4280   55.1190 C.3   599  THR599      0.2028
     79  C        -10.3440   20.5880   54.1580 C.2   599  THR599      0.2642
     80  O         -9.8010   19.7810   53.3960 O.2   599  THR599     -0.2714
     81  CB        -9.5340   22.8940   54.6360 C.3   599  THR599      0.1808
     82  OG1       -8.9650   22.9700   53.3270 O.3   599  THR599     -0.2208
     83  CG2       -8.7520   23.8090   55.5870 C.3   599  THR599      0.0379
     84  N        -11.6550   20.7720   54.2000 N.am  600  ASN600     -0.1957
     85  CA       -12.5260   20.1650   53.2070 C.3   600  ASN600      0.1819
     86  C        -13.1070   21.2100   52.2720 C.2   600  ASN600      0.2621
     87  O        -13.3650   22.3460   52.6850 O.2   600  ASN600     -0.2715
     88  CB       -13.6410   19.3890   53.8990 C.3   600  ASN600      0.1195
     89  CG       -13.1490   18.0840   54.5050 C.2   600  ASN600      0.2630
     90  OD1      -13.3570   17.8290   55.6940 O.2   600  ASN600     -0.2716
     91  ND2      -12.5040   17.2460   53.6750 N.am  600  ASN600     -0.0877
     92  N        -13.3180   20.8170   51.0180 N.am  601  ALA601     -0.1977
     93  CA       -13.9480   21.6840   50.0300 C.3   601  ALA601      0.1597
     94  C        -15.3370   22.1400   50.4940 C.2   601  ALA601      0.2287
     95  O        -16.0800   21.3660   51.1130 O.2   601  ALA601     -0.2864
     96  CB       -14.0270   20.9760   48.6810 C.3   601  ALA601      0.0319
@<TRIPOS>BOND
     1    27    26    2
     2    30    29   ar
     3    40    39    1
     4    31    29   ar
     5    29    28    1
     6    26    25    1
     7    39    38    1
     8    38    37    1
     9    28    25    1
    10    25    24    1
    11    37    36    1
    12    11    10    1
    13    36    33    1
    14    24    15   am
    15    12    10    1
    16    32    33    1
    17    10     7    1
    18    33    34    1
    19    15    16    2
    20    15    14    1
    21    34    35    2
    22     7     8    1
    23     7     6    1
    24     9     8    2
    25     8    13   am
    26    13    14    1
    27    14    17    1
    28     6     3   am
    29     1     2    1
    30    17    18    1
    31    96    93    1
    32     3     2    1
    33     3     4    2
    34    57    56    1
    35     2     5    1
    36    18    19    1
    37    19    20    1
    38    93    94    1
    39    93    92    1
    40    56    58    1
    41    56    53    1
    42    94    95    2
    43    92    86   am
    44    52    53    1
    45    52    43   am
    46    53    54    1
    47    54    55    2
    48    22    21    1
    49    20    21    2
    50    41    42    1
    51    42    43    1
    52    42    45    1
    53    50    48   ar
    54    50    51   ar
    55    43    44    2
    56    68    67    1
    57    21    23    1
    58    48    46   ar
    59    51    49   ar
    60    86    87    2
    61    86    85    1
    62    59    60    1
    63    62    61    2
    64    69    67    1
    65    46    45    1
    66    46    47   ar
    67    67    66    2
    68    49    47   ar
    69    85    88    1
    70    85    84    1
    71    82    81    1
    72    80    79    2
    73    61    60    1
    74    60    63    1
    75    91    89   am
    76    66    65    1
    77    63    64    1
    78    88    89    1
    79    79    84   am
    80    79    78    1
    81    64    65    1
    82    89    90    2
    83    81    78    1
    84    81    83    1
    85    78    77    1
    86    77    72   am
    87    76    74    1
    88    74    71    1
    89    74    75    1
    90    71    72    1
    91    71    70    1
    92    72    73    2
