@<TRIPOS>MOLECULE
tmp/1x3mA00.pdb
 123 116 0 0 0
SMALL
GASTEIGER

@<TRIPOS>ATOM
      1  N         18.9390   47.9700   45.9360 N.3   200  HIS200     -0.1241
      2  CA        18.1610   47.5210   47.0730 C.3   200  HIS200      0.1621
      3  C         18.7500   46.1660   47.4600 C.2   200  HIS200      0.2264
      4  O         18.5490   45.1750   46.7590 O.2   200  HIS200     -0.2867
      5  CB        16.6810   47.3540   46.7030 C.3   200  HIS200      0.0745
      6  CG        15.8370   46.9060   47.8540 C.ar  200  HIS200      0.0817
      7  ND1       15.1600   47.7890   48.6670 N.ar  200  HIS200     -0.2268
      8  CD2       15.6300   45.6740   48.3810 C.ar  200  HIS200      0.1154
      9  CE1       14.5720   47.1210   49.6440 C.ar  200  HIS200      0.1986
     10  NE2       14.8430   45.8370   49.4950 N.ar  200  HIS200     -0.2212
     11  N         18.6980   43.3760   50.2580 N.3   202  GLY202     -0.1210
     12  CA        18.1050   42.7490   51.4310 C.3   202  GLY202      0.1956
     13  C         18.2390   41.2430   51.2410 C.2   202  GLY202      0.2612
     14  O         19.1470   40.7960   50.5330 O.2   202  GLY202     -0.2717
     15  N         17.3690   40.4430   51.8520 N.am  203  ASN203     -0.1960
     16  CA        17.4790   39.0010   51.6480 C.3   203  ASN203      0.1819
     17  C         17.0270   38.7640   50.2110 C.2   203  ASN203      0.2621
     18  O         17.3300   37.7320   49.6070 O.2   203  ASN203     -0.2715
     19  CB        16.6110   38.2190   52.6370 C.3   203  ASN203      0.1195
     20  CG        17.1790   36.8310   52.9320 C.2   203  ASN203      0.2630
     21  OD1       17.1980   35.9520   52.0620 O.2   203  ASN203     -0.2716
     22  ND2       17.6620   36.6380   54.1610 N.am  203  ASN203     -0.0877
     23  N         16.2880   39.7470   49.6960 N.am  204  GLY204     -0.1954
     24  CA        15.8330   39.7610   48.3190 C.3   204  GLY204      0.1869
     25  C         16.6250   40.9560   47.8100 C.2   204  GLY204      0.2309
     26  O         16.7260   41.9580   48.5200 O.2   204  GLY204     -0.2863
     27  N         22.5170   32.1290   54.9790 N.3   274  SER274     -0.1202
     28  CA        22.0360   33.0810   53.9890 C.3   274  SER274      0.2020
     29  C         22.2260   34.4730   54.5780 C.2   274  SER274      0.2619
     30  O         22.1540   35.4770   53.8750 O.2   274  SER274     -0.2717
     31  CB        20.5540   32.8480   53.6790 C.3   274  SER274      0.2103
     32  OG        19.7220   33.2390   54.7600 O.3   274  SER274     -0.2182
     33  N         22.4800   34.5120   55.8810 N.am  275  ASP275     -0.1959
     34  CA        22.6740   35.7600   56.6050 C.3   275  ASP275      0.1840
     35  C         24.0780   36.3190   56.3800 C.2   275  ASP275      0.2622
     36  O         25.0770   35.6460   56.6410 O.2   275  ASP275     -0.2715
     37  CB        22.4300   35.5280   58.1010 C.3   275  ASP275      0.1450
     38  CG        22.5250   36.8030   58.9120 C.2   275  ASP275      0.3671
     39  OD1       21.5530   37.1260   59.6240 O.co2 275  ASP275     -0.2456
     40  OD2       23.5700   37.4850   58.8440 O.co2 275  ASP275     -0.2456
     41  N         24.1430   37.5530   55.8890 N.am  276  LEU276     -0.1963
     42  CA        25.4210   38.2020   55.6290 C.3   276  LEU276      0.1728
     43  C         26.2840   38.3170   56.8830 C.2   276  LEU276      0.2616
     44  O         27.4810   38.0300   56.8430 O.2   276  LEU276     -0.2715
     45  CB        25.2030   39.5980   55.0460 C.3   276  LEU276      0.0311
     46  CG        25.6950   39.8180   53.6180 C.3   276  LEU276      0.0022
     47  CD1       25.7340   41.3170   53.3340 C.3   276  LEU276      0.0001
     48  CD2       27.0850   39.2150   53.4400 C.3   276  LEU276      0.0001
     49  N         25.6800   38.7520   57.9870 N.am  277  ARG277     -0.1977
     50  CA        26.4000   38.9070   59.2520 C.3   277  ARG277      0.1597
     51  C         27.1610   37.6370   59.6250 C.2   277  ARG277      0.2287
     52  O         28.3230   37.6910   60.0250 O.2   277  ARG277     -0.2864
     53  CB        25.4270   39.2650   60.3760 C.3   277  ARG277      0.0334
     54  CG        24.9020   40.6930   60.3410 C.3   277  ARG277      0.0492
     55  CD        23.7030   40.8430   61.2660 C.3   277  ARG277      0.2205
     56  NE        22.4900   40.2930   60.6620 N.pl3 277  ARG277     -0.0865
     57  CZ        21.4600   39.7950   61.3440 C.cat 277  ARG277      0.5346
     58  NH1       21.4820   39.7650   62.6720 N.pl3 277  ARG277      0.1354
     59  NH2       20.3990   39.3340   60.6940 N.pl3 277  ARG277      0.1354
     60  N         30.0480   37.2270   57.0880 N.3   280  GLU280     -0.1245
     61  CA        31.1380   38.1780   57.2850 C.3   280  GLU280      0.1567
     62  C         32.0440   37.7010   58.4120 C.2   280  GLU280      0.2260
     63  O         33.2680   37.8090   58.3290 O.2   280  GLU280     -0.2867
     64  CB        30.5970   39.5730   57.6140 C.3   280  GLU280      0.0388
     65  CG        30.0920   40.3390   56.3990 C.3   280  GLU280      0.1160
     66  CD        29.7310   41.7880   56.7030 C.2   280  GLU280      0.3649
     67  OE1       30.5490   42.4990   57.3290 O.co2 280  GLU280     -0.2457
     68  OE2       28.6310   42.2170   56.3030 O.co2 280  GLU280     -0.2457
     69  N         18.1640   48.9730   51.9230 N.3   322  GLY322     -0.1210
     70  CA        17.7700   47.6300   52.3100 C.3   322  GLY322      0.1956
     71  C         18.5880   47.1940   53.5130 C.2   322  GLY322      0.2612
     72  O         19.5680   47.8580   53.8650 O.2   322  GLY322     -0.2717
     73  N         18.1940   46.0920   54.1490 N.am  323  GLY323     -0.1942
     74  CA        18.9220   45.5960   55.3080 C.3   323  GLY323      0.2014
     75  C         20.4290   45.4880   55.0950 C.2   323  GLY323      0.2638
     76  O         21.2170   45.8760   55.9580 O.2   323  GLY323     -0.2714
     77  N         20.8340   44.9710   53.9400 N.am  324  ILE324     -0.1977
     78  CA        22.2510   44.8260   53.6360 C.3   324  ILE324      0.1596
     79  C         22.8920   46.1450   53.1930 C.2   324  ILE324      0.2287
     80  O         23.9710   46.5060   53.6650 O.2   324  ILE324     -0.2864
     81  CB        22.4700   43.7630   52.5320 C.3   324  ILE324      0.0276
     82  CG1       22.0360   42.3840   53.0400 C.3   324  ILE324      0.0022
     83  CG2       23.9300   43.7400   52.1060 C.3   324  ILE324      0.0022
     84  CD1       21.9980   41.3110   51.9500 C.3   324  ILE324      0.0001
     85  N         22.0060   49.1230   53.8550 N.3   326  GLU326     -0.1231
     86  CA        21.9910   50.1070   54.9290 C.3   326  GLU326      0.1699
     87  C         22.9760   49.8060   56.0600 C.2   326  GLU326      0.2592
     88  O         23.5080   50.7250   56.6920 O.2   326  GLU326     -0.2718
     89  CB        20.5800   50.1960   55.5230 C.3   326  GLU326      0.0402
     90  CG        19.5410   50.8270   54.6110 C.3   326  GLU326      0.1161
     91  CD        18.1280   50.5670   55.0960 C.2   326  GLU326      0.3649
     92  OE1       17.9060   50.5880   56.3240 O.co2 326  GLU326     -0.2457
     93  OE2       17.2390   50.3530   54.2490 O.co2 326  GLU326     -0.2457
     94  N         23.2120   48.5210   56.3100 N.am  327  ASN327     -0.1960
     95  CA        24.0770   48.1200   57.4040 C.3   327  ASN327      0.1819
     96  C         25.4170   47.4720   57.0800 C.2   327  ASN327      0.2622
     97  O         26.2660   47.3880   57.9550 O.2   327  ASN327     -0.2715
     98  CB        23.3040   47.1880   58.3320 C.3   327  ASN327      0.1195
     99  CG        22.0530   47.8280   58.8800 C.2   327  ASN327      0.2630
    100  OD1       22.1220   48.7780   59.6550 O.2   327  ASN327     -0.2716
    101  ND2       20.8940   47.3110   58.4750 N.am  327  ASN327     -0.0877
    102  N         25.6220   47.0130   55.8500 N.am  328  SER328     -0.1950
    103  CA        26.8910   46.3620   55.5350 C.3   328  SER328      0.1924
    104  C         28.0000   47.2890   55.0670 C.2   328  SER328      0.2314
    105  O         28.0590   47.6730   53.8970 O.2   328  SER328     -0.2863
    106  CB        26.6940   45.2690   54.4930 C.3   328  SER328      0.2116
    107  OG        27.9260   44.6120   54.2630 O.3   328  SER328     -0.2180
    108  N         15.4910   52.6290   53.3950 N.3   376  THR376     -0.1218
    109  CA        14.2190   52.5830   52.7070 C.3   376  THR376      0.1862
    110  C         13.0940   52.5420   53.7460 C.2   376  THR376      0.2287
    111  O         13.3080   52.1690   54.9010 O.2   376  THR376     -0.2866
    112  CB        14.1410   51.3600   51.7670 C.3   376  THR376      0.1770
    113  OG1       12.9220   51.4140   51.0180 O.3   376  THR376     -0.2211
    114  CG2       14.1920   50.0620   52.5610 C.3   376  THR376      0.0375
    115  N          9.2550   51.4850   53.0520 N.3   378  GLU378     -0.1245
    116  CA         8.1450   51.1360   52.1820 C.3   378  GLU378      0.1567
    117  C          6.7990   51.4130   52.8290 C.2   378  GLU378      0.2260
    118  O          5.8520   51.7810   52.1390 O.2   378  GLU378     -0.2867
    119  CB         8.2870   49.6760   51.7460 C.3   378  GLU378      0.0388
    120  CG         9.6020   49.4670   50.9960 C.3   378  GLU378      0.1160
    121  CD        10.0680   48.0250   50.9570 C.2   378  GLU378      0.3649
    122  OE1        9.5570   47.2530   50.1140 O.co2 378  GLU378     -0.2457
    123  OE2       10.9470   47.6730   51.7780 O.co2 378  GLU378     -0.2457
@<TRIPOS>BOND
     1     1     2    1
     2     5     2    1
     3     5     6    1
     4     4     3    2
     5     2     3    1
     6    25    24    1
     7    25    26    2
     8     6     8   ar
     9     6     7   ar
    10    24    23    1
    11     8    10   ar
    12     7     9   ar
    13    10     9   ar
    14    18    17    2
    15    23    17   am
    16   122   121   ar
    17    17    16    1
    18    11    12    1
    19    14    13    2
    20   121   120    1
    21   121   123   ar
    22   120   119    1
    23   113   112    1
    24    13    12    1
    25    13    15   am
    26    16    15    1
    27    16    19    1
    28   119   116    1
    29   112   114    1
    30   112   109    1
    31    69    70    1
    32    84    82    1
    33    21    20    2
    34    83    81    1
    35   118   117    2
    36   116   117    1
    37   116   115    1
    38    70    71    1
    39    81    82    1
    40    81    78    1
    41    19    20    1
    42   109   108    1
    43   109   110    1
    44    20    22   am
    45    79    78    1
    46    79    80    2
    47    47    46    1
    48    48    46    1
    49    71    72    2
    50    71    73   am
    51    46    45    1
    52    78    77    1
    53    31    28    1
    54    31    32    1
    55   110   111    2
    56    85    86    1
    57    30    29    2
    58   105   104    2
    59    77    75   am
    60    28    29    1
    61    28    27    1
    62    73    74    1
    63    93    91   ar
    64   107   106    1
    65   106   103    1
    66    29    33   am
    67    90    91    1
    68    90    89    1
    69    86    89    1
    70    86    87    1
    71    45    42    1
    72   104   103    1
    73    75    74    1
    74    75    76    2
    75    91    92   ar
    76   103   102    1
    77    42    41    1
    78    42    43    1
    79   102    96   am
    80    33    34    1
    81    41    35   am
    82    87    94   am
    83    87    88    2
    84    68    66   ar
    85    94    95    1
    86    35    34    1
    87    35    36    2
    88    65    66    1
    89    65    64    1
    90    34    37    1
    91    66    67   ar
    92    44    43    2
    93    43    49   am
    94    96    95    1
    95    96    97    2
    96    60    61    1
    97    61    64    1
    98    61    62    1
    99    95    98    1
   100    49    50    1
   101    37    38    1
   102    63    62    2
   103    98    99    1
   104   101    99   am
   105    40    38   ar
   106    99   100    2
   107    38    39   ar
   108    50    51    1
   109    50    53    1
   110    51    52    2
   111    54    53    1
   112    54    55    1
   113    56    55    1
   114    56    57    2
   115    59    57    1
   116    57    58    1
