@<TRIPOS>MOLECULE
tmp/1x3sA00.pdb
 176 171 0 0 0
SMALL
GASTEIGER

@<TRIPOS>ATOM
      1  N         20.4740   34.2560   15.9230 N.3    16  SER16      -0.1202
      2  CA        21.5940   33.6440   15.2920 C.3    16  SER16       0.2020
      3  C         22.8570   34.4360   15.5660 C.2    16  SER16       0.2619
      4  O         22.8560   35.6980   15.5900 O.2    16  SER16      -0.2717
      5  CB        21.3520   33.5710   13.7770 C.3    16  SER16       0.2103
      6  OG        22.3900   32.8710   13.1480 O.3    16  SER16      -0.2182
      7  N         23.9630   33.7230   15.7880 N.am   17  GLY17      -0.1942
      8  CA        25.2820   34.3110   15.9430 C.3    17  GLY17       0.2014
      9  C         25.6130   34.8090   17.3340 C.2    17  GLY17       0.2639
     10  O         26.7180   35.2890   17.5480 O.2    17  GLY17      -0.2714
     11  N         24.7060   34.6430   18.3050 N.am   18  VAL18      -0.1963
     12  CA        25.0050   35.1710   19.6370 C.3    18  VAL18       0.1727
     13  C         25.9830   34.2890   20.4260 C.2    18  VAL18       0.2617
     14  O         26.5300   34.7500   21.4320 O.2    18  VAL18      -0.2715
     15  CB        23.7520   35.4250   20.4760 C.3    18  VAL18       0.0290
     16  CG1       22.8260   36.4280   19.7360 C.3    18  VAL18       0.0023
     17  CG2       22.9990   34.1140   20.7650 C.3    18  VAL18       0.0023
     18  N         26.1390   33.0270   20.0040 N.am   19  GLY19      -0.1940
     19  CA        27.0660   32.1190   20.6600 C.3    19  GLY19       0.2014
     20  C         26.3900   30.9800   21.4080 C.2    19  GLY19       0.2639
     21  O         27.0370   30.3790   22.2770 O.2    19  GLY19      -0.2714
     22  N         25.1580   30.6390   21.0800 N.am   20  LYS20      -0.1963
     23  CA        24.4860   29.5220   21.7610 C.3    20  LYS20       0.1728
     24  C         25.2980   28.2210   21.6760 C.2    20  LYS20       0.2617
     25  O         25.5750   27.5640   22.6820 O.2    20  LYS20      -0.2715
     26  CB        23.0880   29.3140   21.1820 C.3    20  LYS20       0.0311
     27  CG        22.2050   30.5170   21.3700 C.3    20  LYS20       0.0038
     28  CD        20.7920   30.2950   20.8550 C.3    20  LYS20       0.0206
     29  CE        20.6910   29.9770   19.3810 C.3    20  LYS20       0.1093
     30  NZ        21.2250   31.1230   18.5500 N.3    20  LYS20      -0.1314
     31  N         25.6510   27.8450   20.4470 N.am   21  SER21      -0.1936
     32  CA        26.3840   26.6100   20.2320 C.3    21  SER21       0.2055
     33  C         27.7700   26.6600   20.7920 C.2    21  SER21       0.2643
     34  O         28.2740   25.6580   21.2640 O.2    21  SER21      -0.2714
     35  CB        26.4380   26.2410   18.7660 C.3    21  SER21       0.2130
     36  OG        25.0990   26.1630   18.2880 O.3    21  SER21      -0.2179
     37  N         28.3720   27.8300   20.8160 N.am   22  SER22      -0.1949
     38  CA        29.7130   27.9680   21.4030 C.3    22  SER22       0.1924
     39  C         29.6410   27.8360   22.9120 C.2    22  SER22       0.2314
     40  O         30.5310   27.2220   23.5450 O.2    22  SER22      -0.2863
     41  CB        30.3450   29.3050   21.0040 C.3    22  SER22       0.2116
     42  OG        30.5760   29.3300   19.5840 O.3    22  SER22      -0.2180
     43  N         36.6850   25.8600   21.9800 N.3    32  PHE32      -0.1227
     44  CA        36.0910   26.9530   21.2420 C.3    32  PHE32       0.1736
     45  C         36.4560   26.8190   19.7650 C.2    32  PHE32       0.2595
     46  O         37.6040   26.4550   19.4320 O.2    32  PHE32      -0.2718
     47  CB        36.6190   28.2670   21.8050 C.3    32  PHE32       0.0547
     48  CG        36.1460   29.4980   21.0630 C.ar   32  PHE32      -0.0202
     49  CD1       34.8460   29.9700   21.2250 C.ar   32  PHE32      -0.0042
     50  CD2       36.9940   30.2010   20.1770 C.ar   32  PHE32      -0.0042
     51  CE1       34.3900   31.0590   20.5640 C.ar   32  PHE32      -0.0003
     52  CE2       36.5460   31.3140   19.4980 C.ar   32  PHE32      -0.0003
     53  CZ        35.2270   31.7620   19.6790 C.ar   32  PHE32      -0.0000
     54  N         35.5200   27.0850   18.8740 N.am   33  ASP33      -0.1960
     55  CA        35.7250   26.9850   17.4340 C.3    33  ASP33       0.1825
     56  C         35.3540   28.3480   16.8630 C.2    33  ASP33       0.2464
     57  O         34.1790   28.7280   16.7830 O.2    33  ASP33      -0.2730
     58  CB        34.8410   25.8870   16.8400 C.3    33  ASP33       0.1450
     59  CG        35.0630   25.7050   15.3570 C.2    33  ASP33       0.3671
     60  OD1       35.7710   26.5410   14.7600 O.co2  33  ASP33      -0.2456
     61  OD2       34.5120   24.7190   14.8160 O.co2  33  ASP33      -0.2456
     62  N         36.3580   29.1190   16.4260 N.am   34  PRO34      -0.2715
     63  CA        36.1230   30.4540   15.8680 C.3    34  PRO34       0.1536
     64  C         35.2900   30.4350   14.5990 C.2    34  PRO34       0.2598
     65  O         34.7250   31.4430   14.2050 O.2    34  PRO34      -0.2715
     66  CB        37.5400   30.9870   15.5860 C.3    34  PRO34       0.0310
     67  CG        38.4420   30.1680   16.4640 C.3    34  PRO34       0.0237
     68  CD        37.7980   28.8020   16.5440 C.3    34  PRO34       0.0939
     69  N         35.2390   29.2660   13.9600 N.am   35  GLU35      -0.1964
     70  CA        34.5150   29.0820   12.7280 C.3    35  GLU35       0.1733
     71  C         33.3450   28.1320   12.8660 C.2    35  GLU35       0.2616
     72  O         32.9130   27.5460   11.8900 O.2    35  GLU35      -0.2715
     73  CB        35.4530   28.5710   11.6140 C.3    35  GLU35       0.0429
     74  CG        36.7670   29.3390   11.4990 C.3    35  GLU35       0.1163
     75  CD        36.5580   30.7910   11.1450 C.2    35  GLU35       0.3649
     76  OE1       37.4180   31.6100   11.5270 O.co2  35  GLU35      -0.2457
     77  OE2       35.5470   31.1160   10.4820 O.co2  35  GLU35      -0.2457
     78  N         32.8070   28.0140   14.0860 N.am   36  LEU36      -0.1963
     79  CA        31.6720   27.1020   14.3090 C.3    36  LEU36       0.1728
     80  C         30.5270   27.3750   13.3320 C.2    36  LEU36       0.2616
     81  O         30.1350   28.5110   13.1410 O.2    36  LEU36      -0.2715
     82  CB        31.1660   27.2650   15.7520 C.3    36  LEU36       0.0311
     83  CG        30.2210   26.1550   16.2010 C.3    36  LEU36       0.0022
     84  CD1       30.9640   24.7900   16.1590 C.3    36  LEU36       0.0001
     85  CD2       29.7780   26.4240   17.6300 C.3    36  LEU36       0.0001
     86  N         30.0090   26.3210   12.7030 N.am   37  ALA37      -0.1963
     87  CA        28.9140   26.4560   11.7570 C.3    37  ALA37       0.1728
     88  C         27.5580   26.8080   12.3910 C.2    37  ALA37       0.2616
     89  O         27.2580   26.3800   13.5110 O.2    37  ALA37      -0.2715
     90  CB        28.7760   25.1700   10.9480 C.3    37  ALA37       0.0334
     91  N         26.7610   27.6090   11.7180 N.am   38  ALA38      -0.1963
     92  CA        25.4190   27.9360   12.1590 C.3    38  ALA38       0.1728
     93  C         24.6660   26.6400   12.3080 C.2    38  ALA38       0.2616
     94  O         24.8250   25.7020   11.5050 O.2    38  ALA38      -0.2715
     95  CB        24.7050   28.8290   11.1380 C.3    38  ALA38       0.0334
     96  N         23.8060   26.5930   13.3160 N.am   39  THR39      -0.1951
     97  CA        23.0010   25.4310   13.6080 C.3    39  THR39       0.1897
     98  C         21.8180   25.3740   12.6710 C.2    39  THR39       0.2313
     99  O         21.1170   26.3670   12.4660 O.2    39  THR39      -0.2863
    100  CB        22.5130   25.5420   15.0650 C.3    39  THR39       0.1794
    101  OG1       23.6750   25.6560   15.9120 O.3    39  THR39      -0.2208
    102  CG2       21.7370   24.3230   15.4880 C.3    39  THR39       0.0378
    103  N         19.0210   25.2820   19.7550 N.3    63  THR63      -0.1218
    104  CA        18.2670   25.5510   18.5580 C.3    63  THR63       0.1862
    105  C         18.8710   26.5270   17.6140 C.2    63  THR63       0.2287
    106  O         19.7140   27.3420   17.9450 O.2    63  THR63      -0.2866
    107  CB        16.8690   25.9920   18.9690 C.3    63  THR63       0.1770
    108  OG1       16.9210   27.2830   19.5970 O.3    63  THR63      -0.2211
    109  CG2       16.2600   24.9010   19.9240 C.3    63  THR63       0.0375
    110  N         19.0980   29.8660   15.6020 N.3    65  GLY65      -0.1210
    111  CA        18.6000   31.2260   15.8040 C.3    65  GLY65       0.1956
    112  C         17.8760   31.7700   14.5680 C.2    65  GLY65       0.2611
    113  O         17.0470   32.7060   14.6860 O.2    65  GLY65      -0.2717
    114  N         18.1610   31.1920   13.3960 N.am   66  GLN66      -0.1979
    115  CA        17.4950   31.6280   12.1420 C.3    66  GLN66       0.1601
    116  C         16.1360   30.9120   12.0510 C.2    66  GLN66       0.2287
    117  O         16.0710   29.6850   11.9610 O.2    66  GLN66      -0.2864
    118  CB        18.3730   31.2720   10.9470 C.3    66  GLN66       0.0394
    119  CG        19.6910   32.0030   10.8980 C.3    66  GLN66       0.0908
    120  CD        20.5620   31.5130    9.7640 C.2    66  GLN66       0.2608
    121  OE1       20.5660   32.0860    8.6730 O.2    66  GLN66      -0.2717
    122  NE2       21.2900   30.4340   10.0040 N.am   66  GLN66      -0.0878
    123  N         26.5180   37.1170   26.1320 N.3   120  ASN120     -0.1225
    124  CA        27.7420   36.4950   25.6720 C.3   120  ASN120      0.1785
    125  C         28.6620   37.4350   24.8840 C.2   120  ASN120      0.2597
    126  O         28.2680   38.5370   24.4750 O.2   120  ASN120     -0.2718
    127  CB        27.3470   35.2670   24.8390 C.3   120  ASN120      0.1169
    128  CG        28.5110   34.3640   24.4730 C.2   120  ASN120      0.2627
    129  OD1       28.6070   33.8900   23.2880 O.2   120  ASN120     -0.2716
    130  ND2       29.3580   34.1080   25.3970 N.am  120  ASN120     -0.0877
    131  N         29.8920   36.9840   24.6980 N.am  121  LYS121     -0.1980
    132  CA        30.9100   37.6870   23.9290 C.3   121  LYS121      0.1596
    133  C         31.4870   38.8740   24.6850 C.2   121  LYS121      0.2287
    134  O         31.9020   39.8500   24.0500 O.2   121  LYS121     -0.2864
    135  CB        30.4400   38.0770   22.5170 C.3   121  LYS121      0.0298
    136  CG        29.7990   36.9380   21.7480 C.3   121  LYS121      0.0038
    137  CD        29.9620   37.1560   20.2430 C.3   121  LYS121      0.0206
    138  CE        29.1010   36.2120   19.4360 C.3   121  LYS121      0.1093
    139  NZ        29.3550   36.3730   17.9390 N.3   121  LYS121     -0.1314
    140  N         34.2630   39.1820   25.8560 N.3   123  ASP123     -0.1225
    141  CA        35.6870   39.3470   25.4870 C.3   123  ASP123      0.1805
    142  C         35.8890   40.3050   24.3100 C.2   123  ASP123      0.2597
    143  O         37.0100   40.8200   24.1060 O.2   123  ASP123     -0.2718
    144  CB        36.2510   37.9950   25.0540 C.3   123  ASP123      0.1424
    145  CG        35.5460   37.4430   23.8490 C.2   123  ASP123      0.3668
    146  OD1       34.3860   36.9330   24.0250 O.co2 123  ASP123     -0.2456
    147  OD2       36.0400   37.4900   22.7290 O.co2 123  ASP123     -0.2456
    148  N         34.8620   40.5490   23.5350 N.am  124  LYS124     -0.1979
    149  CA        34.9680   41.3290   22.3110 C.3   124  LYS124      0.1596
    150  C         34.9380   42.8230   22.4640 C.2   124  LYS124      0.2287
    151  O         34.3910   43.3710   23.4160 O.2   124  LYS124     -0.2864
    152  CB        33.8350   40.9610   21.3690 C.3   124  LYS124      0.0298
    153  CG        33.9710   39.5980   20.7270 C.3   124  LYS124      0.0038
    154  CD        32.8950   39.3810   19.6300 C.3   124  LYS124      0.0206
    155  CE        33.3360   39.8510   18.2470 C.3   124  LYS124      0.1093
    156  NZ        32.3370   39.5070   17.1860 N.3   124  LYS124     -0.1314
    157  N         31.7190   34.5910   28.2740 N.3   148  SER148     -0.1202
    158  CA        32.4480   34.5030   27.0310 C.3   148  SER148      0.2020
    159  C         32.7210   33.0270   26.7520 C.2   148  SER148      0.2619
    160  O         33.4670   32.3920   27.5200 O.2   148  SER148     -0.2717
    161  CB        33.7990   35.2220   27.0560 C.3   148  SER148      0.2103
    162  OG        34.5070   34.9350   25.8610 O.3   148  SER148     -0.2182
    163  N         32.1420   32.5010   25.6770 N.am  149  ALA149     -0.1965
    164  CA        32.4560   31.1060   25.3220 C.3   149  ALA149      0.1728
    165  C         33.9610   31.0480   24.9260 C.2   149  ALA149      0.2616
    166  O         34.6110   30.0110   25.0920 O.2   149  ALA149     -0.2715
    167  CB        31.5990   30.6680   24.1490 C.3   149  ALA149      0.0334
    168  N         34.4900   32.1550   24.4060 N.am  150  LYS150     -0.1977
    169  CA        35.8710   32.1610   23.9140 C.3   150  LYS150      0.1596
    170  C         36.8870   32.1100   25.0360 C.2   150  LYS150      0.2287
    171  O         37.8590   31.3200   24.9350 O.2   150  LYS150     -0.2864
    172  CB        36.0670   33.3900   23.0290 C.3   150  LYS150      0.0298
    173  CG        37.4840   33.4030   22.3650 C.3   150  LYS150      0.0038
    174  CD        37.5530   34.5510   21.3710 C.3   150  LYS150      0.0206
    175  CE        38.9150   34.7680   20.7170 C.3   150  LYS150      0.1093
    176  NZ        38.8540   35.9940   19.8310 N.3   150  LYS150     -0.1314
@<TRIPOS>BOND
     1   121   120    2
     2   120   122   am
     3   120   119    1
     4    77    75   ar
     5   119   118    1
     6   118   115    1
     7    90    87    1
     8    95    92    1
     9    75    74    1
    10    75    76   ar
    11    74    73    1
    12    94    93    2
    13    73    70    1
    14    91    92    1
    15    91    88   am
    16    87    88    1
    17    87    86    1
    18    72    71    2
    19   117   116    2
    20   116   115    1
    21   115   114    1
    22    92    93    1
    23    93    96   am
    24    88    89    2
    25    99    98    2
    26    98    97    1
    27    86    80   am
    28    70    71    1
    29    70    69    1
    30    71    78   am
    31    81    80    2
    32     6     5    1
    33    96    97    1
    34    80    79    1
    35   114   112   am
    36    97   100    1
    37     5     2    1
    38    69    64   am
    39    78    79    1
    40    65    64    2
    41    79    82    1
    42   112   113    2
    43   112   111    1
    44    64    63    1
    45    60    59   ar
    46    61    59   ar
    47   100   102    1
    48   100   101    1
    49     2     3    1
    50     2     1    1
    51    59    58    1
    52     3     4    2
    53     3     7   am
    54    66    63    1
    55    66    67    1
    56   110   111    1
    57    82    83    1
    58     7     8    1
    59    63    62    1
    60     8     9    1
    61    84    83    1
    62    83    85    1
    63    62    68    1
    64    62    56   am
    65    67    68    1
    66    57    56    2
    67    58    55    1
    68    56    55    1
    69   156   155    1
    70     9    10    2
    71     9    11   am
    72    55    54    1
    73   105   106    2
    74   105   104    1
    75   139   138    1
    76   155   154    1
    77    36    35    1
    78    11    12    1
    79    30    29    1
    80   104   107    1
    81   104   103    1
    82    35    32    1
    83    54    45   am
    84   107   108    1
    85   107   109    1
    86    29    28    1
    87    46    45    2
    88   138   137    1
    89    52    53   ar
    90    52    50   ar
    91    42    41    1
    92   154   153    1
    93    12    13    1
    94    12    15    1
    95    53    51   ar
    96    16    15    1
    97    45    44    1
    98   176   175    1
    99    18    13   am
   100    18    19    1
   101    50    48   ar
   102    32    31    1
   103    32    33    1
   104   137   136    1
   105    13    14    2
   106    31    24   am
   107    15    17    1
   108    51    49   ar
   109    19    20    1
   110   175   174    1
   111   153   152    1
   112    33    37   am
   113    33    34    2
   114    37    38    1
   115    28    27    1
   116    41    38    1
   117    48    49   ar
   118    48    47    1
   119    22    20   am
   120    22    23    1
   121    26    27    1
   122    26    23    1
   123    44    47    1
   124    44    43    1
   125   152   149    1
   126   174   173    1
   127    38    39    1
   128    20    21    2
   129    24    23    1
   130    24    25    2
   131   136   135    1
   132   149   150    1
   133   149   148    1
   134   173   172    1
   135   150   151    2
   136   135   132    1
   137   147   145   ar
   138    39    40    2
   139   172   169    1
   140   129   128    2
   141   148   142   am
   142   145   146   ar
   143   145   144    1
   144   169   168    1
   145   169   170    1
   146   132   133    1
   147   132   131    1
   148   134   133    2
   149   143   142    2
   150   167   164    1
   151   142   141    1
   152   168   165   am
   153   128   127    1
   154   128   130   am
   155   126   125    2
   156   131   125   am
   157   127   124    1
   158   125   124    1
   159   165   166    2
   160   165   164    1
   161   171   170    2
   162   144   141    1
   163   164   163    1
   164   141   140    1
   165   124   123    1
   166   163   159   am
   167   162   161    1
   168   159   158    1
   169   159   160    2
   170   158   161    1
   171   158   157    1
