@<TRIPOS>MOLECULE
tmp/1x3wA02.pdb
 126 121 0 0 0
SMALL
GASTEIGER

@<TRIPOS>ATOM
      1  N         65.7910   54.4420   97.0180 N.3    53  HIS53      -0.1226
      2  CA        65.2260   53.1050   97.1180 C.3    53  HIS53       0.1752
      3  C         66.1950   52.1440   97.7950 C.2    53  HIS53       0.2595
      4  O         66.0310   51.7820   98.9600 O.2    53  HIS53      -0.2718
      5  CB        64.7970   52.5620   95.7570 C.3    53  HIS53       0.0759
      6  CG        64.1370   51.2140   95.8290 C.ar   53  HIS53       0.0818
      7  ND1       64.7660   50.0500   95.4350 N.ar   53  HIS53      -0.2268
      8  CD2       62.9040   50.8450   96.2600 C.ar   53  HIS53       0.1154
      9  CE1       63.9480   49.0250   95.6060 C.ar   53  HIS53       0.1986
     10  NE2       62.8120   49.4790   96.1090 N.ar   53  HIS53      -0.2212
     11  N         67.2130   51.7530   97.0490 N.am   54  LEU54      -0.1980
     12  CA        68.1380   50.7380   97.4760 C.3    54  LEU54       0.1596
     13  C         68.6120   50.9470   98.8960 C.2    54  LEU54       0.2287
     14  O         68.5680   50.0200   99.7010 O.2    54  LEU54      -0.2864
     15  CB        69.3150   50.7100   96.5230 C.3    54  LEU54       0.0297
     16  CG        68.8340   50.4250   95.1070 C.3    54  LEU54       0.0022
     17  CD1       69.8140   50.9550   94.0670 C.3    54  LEU54       0.0001
     18  CD2       68.5760   48.9300   94.9510 C.3    54  LEU54       0.0001
     19  N         65.8550   47.2660  101.8010 N.3    58  TYR58      -0.1241
     20  CA        66.2040   45.9200  102.1700 C.3    58  TYR58       0.1605
     21  C         66.3550   45.7760  103.6520 C.2    58  TYR58       0.2264
     22  O         66.9190   44.7900  104.1150 O.2    58  TYR58      -0.2867
     23  CB        67.5260   45.5310  101.5540 C.3    58  TYR58       0.0534
     24  CG        67.4750   45.3910  100.0760 C.ar   58  TYR58      -0.0201
     25  CD1       67.6560   46.4920   99.2540 C.ar   58  TYR58      -0.0009
     26  CD2       67.2620   44.1560   99.4900 C.ar   58  TYR58      -0.0009
     27  CE1       67.6240   46.3670   97.8940 C.ar   58  TYR58       0.0417
     28  CE2       67.2230   44.0200   98.1240 C.ar   58  TYR58       0.0417
     29  CZ        67.4050   45.1300   97.3340 C.ar   58  TYR58       0.1957
     30  OH        67.3680   45.0170   95.9720 O.3    58  TYR58      -0.2866
     31  N         56.6020   46.5870   86.3840 N.3   149  GLY149     -0.1210
     32  CA        56.1990   47.5350   85.3520 C.3   149  GLY149      0.1956
     33  C         56.0050   46.8810   83.9930 C.2   149  GLY149      0.2612
     34  O         55.2610   47.4060   83.1480 O.2   149  GLY149     -0.2717
     35  N         56.6620   45.7290   83.7980 N.am  150  THR150     -0.1952
     36  CA        56.7450   45.0450   82.4940 C.3   150  THR150      0.1897
     37  C         56.6210   43.5210   82.5470 C.2   150  THR150      0.2313
     38  O         57.2680   42.8250   83.3520 O.2   150  THR150     -0.2863
     39  CB        58.0520   45.4120   81.7660 C.3   150  THR150      0.1794
     40  OG1       58.0510   46.8170   81.5110 O.3   150  THR150     -0.2208
     41  CG2       58.2000   44.6680   80.4340 C.3   150  THR150      0.0378
     42  N         58.2410   40.9160   85.0430 N.3   167  ARG167     -0.1231
     43  CA        59.4980   41.2230   85.6670 C.3   167  ARG167      0.1694
     44  C         59.2630   42.0090   86.9530 C.2   167  ARG167      0.2592
     45  O         58.9550   43.2070   86.9370 O.2   167  ARG167     -0.2718
     46  CB        60.3920   41.9030   84.6590 C.3   167  ARG167      0.0321
     47  CG        60.6410   40.9790   83.4800 C.3   167  ARG167      0.0489
     48  CD        61.5890   41.5950   82.4640 C.3   167  ARG167      0.2205
     49  NE        63.0060   41.5620   82.8440 N.pl3 167  ARG167     -0.0865
     50  CZ        63.5570   40.6970   83.6860 C.cat 167  ARG167      0.5346
     51  NH1       62.8140   39.7560   84.2610 N.pl3 167  ARG167      0.1354
     52  NH2       64.8540   40.7790   83.9470 N.pl3 167  ARG167      0.1354
     53  N         59.3920   41.2920   88.0670 N.am  168  TYR168     -0.1962
     54  CA        58.9850   41.7530   89.3760 C.3   168  TYR168      0.1771
     55  C         60.1140   42.3910   90.1720 C.2   168  TYR168      0.2619
     56  O         61.2560   41.9460   90.1140 O.2   168  TYR168     -0.2715
     57  CB        58.5300   40.5510   90.1610 C.3   168  TYR168      0.0574
     58  CG        57.2270   39.9080   89.7470 C.ar  168  TYR168     -0.0198
     59  CD1       56.0880   40.6780   89.4720 C.ar  168  TYR168     -0.0009
     60  CD2       57.1120   38.5040   89.7070 C.ar  168  TYR168     -0.0009
     61  CE1       54.8890   40.0690   89.1300 C.ar  168  TYR168      0.0417
     62  CE2       55.9140   37.8840   89.3800 C.ar  168  TYR168      0.0417
     63  CZ        54.8100   38.6700   89.0950 C.ar  168  TYR168      0.1957
     64  OH        53.6310   38.0500   88.7650 O.3   168  TYR168     -0.2866
     65  N         59.7980   43.4070   90.9620 N.am  169  ASN169     -0.1972
     66  CA        60.8030   43.9980   91.8450 C.3   169  ASN169      0.1688
     67  C         60.6630   43.6160   93.3260 C.2   169  ASN169      0.2292
     68  O         61.6140   43.7770   94.1070 O.2   169  ASN169     -0.2864
     69  CB        60.8520   45.5150   91.6760 C.3   169  ASN169      0.1181
     70  CG        61.3540   45.9260   90.3120 C.2   169  ASN169      0.2629
     71  OD1       60.6910   45.6920   89.3030 O.2   169  ASN169     -0.2716
     72  ND2       62.5360   46.5480   90.2720 N.am  169  ASN169     -0.0877
     73  N         69.1860   38.7010   85.3690 N.3   182  CYS182     -0.1221
     74  CA        70.1490   39.3170   86.2250 C.3   182  CYS182      0.1808
     75  C         69.4730   40.2500   87.2240 C.2   182  CYS182      0.2602
     76  O         69.7500   40.2110   88.4210 O.2   182  CYS182     -0.2717
     77  CB        71.1440   40.0640   85.3490 C.3   182  CYS182      0.0970
     78  SG        71.6890   41.6010   86.0810 S.3   182  CYS182     -0.0800
     79  N         68.5770   41.0830   86.7130 N.am  183  GLY183     -0.1942
     80  CA        67.9330   42.0940   87.5250 C.3   183  GLY183      0.2014
     81  C         67.4700   41.5000   88.8330 C.2   183  GLY183      0.2638
     82  O         67.9420   41.8940   89.9110 O.2   183  GLY183     -0.2714
     83  N         66.5550   40.5420   88.7370 N.am  184  GLU184     -0.1977
     84  CA        65.9420   40.0150   89.9270 C.3   184  GLU184      0.1602
     85  C         66.9030   39.0890   90.6090 C.2   184  GLU184      0.2287
     86  O         66.9650   39.0310   91.8270 O.2   184  GLU184     -0.2864
     87  CB        64.5860   39.3590   89.6550 C.3   184  GLU184      0.0415
     88  CG        64.5230   38.3450   88.5450 C.3   184  GLU184      0.1163
     89  CD        64.0780   38.9520   87.2270 C.2   184  GLU184      0.3649
     90  OE1       62.8560   39.2580   87.0750 O.co2 184  GLU184     -0.2457
     91  OE2       64.9670   39.1030   86.3470 O.co2 184  GLU184     -0.2457
     92  N         68.7820   41.6690   92.9790 N.3   187  ASN187     -0.1240
     93  CA        67.7810   42.0920   93.9490 C.3   187  ASN187      0.1653
     94  C         67.5200   41.1360   95.1310 C.2   187  ASN187      0.2266
     95  O         67.8100   41.4670   96.2710 O.2   187  ASN187     -0.2867
     96  CB        66.4810   42.3800   93.2130 C.3   187  ASN187      0.1155
     97  CG        65.3760   42.8690   94.1400 C.2   187  ASN187      0.2627
     98  OD1       65.6100   43.6720   95.0520 O.2   187  ASN187     -0.2716
     99  ND2       64.1560   42.3950   93.9000 N.am  187  ASN187     -0.0877
    100  N         74.3580   47.3430   96.8940 N.3   202  TYR202     -0.1241
    101  CA        73.8520   46.8900   95.6150 C.3   202  TYR202      0.1605
    102  C         74.5380   47.7940   94.6370 C.2   202  TYR202      0.2264
    103  O         74.3360   49.0150   94.6720 O.2   202  TYR202     -0.2867
    104  CB        72.3580   47.1100   95.5760 C.3   202  TYR202      0.0534
    105  CG        71.6120   46.8990   94.2680 C.ar  202  TYR202     -0.0201
    106  CD1       70.8610   45.7430   94.0600 C.ar  202  TYR202     -0.0009
    107  CD2       71.5680   47.8930   93.2930 C.ar  202  TYR202     -0.0009
    108  CE1       70.1260   45.5560   92.9000 C.ar  202  TYR202      0.0417
    109  CE2       70.8360   47.7170   92.1230 C.ar  202  TYR202      0.0417
    110  CZ        70.1100   46.5430   91.9320 C.ar  202  TYR202      0.1957
    111  OH        69.3630   46.3490   90.7760 O.3   202  TYR202     -0.2866
    112  N         73.5330   48.0780   81.9620 N.3   208  ASP208     -0.1239
    113  CA        72.6600   46.9100   82.1610 C.3   208  ASP208      0.1674
    114  C         73.2850   45.7610   82.9040 C.2   208  ASP208      0.2266
    115  O         73.2520   44.6140   82.4260 O.2   208  ASP208     -0.2867
    116  CB        72.1260   46.3840   80.8320 C.3   208  ASP208      0.1410
    117  CG        71.1840   47.3680   80.1530 C.2   208  ASP208      0.3668
    118  OD1       71.5640   48.5720   79.9960 O.co2 208  ASP208     -0.2456
    119  OD2       70.0630   46.9220   79.7700 O.co2 208  ASP208     -0.2456
    120  N         74.0480   44.5810   87.3060 N.3   210  VAL210     -0.1245
    121  CA        74.0800   44.8590   88.7080 C.3   210  VAL210      0.1561
    122  C         74.5740   43.6310   89.4210 C.2   210  VAL210      0.2260
    123  O         74.4330   42.5260   88.9430 O.2   210  VAL210     -0.2867
    124  CB        72.7160   45.2100   89.2180 C.3   210  VAL210      0.0252
    125  CG1       72.3650   46.6050   88.8030 C.3   210  VAL210      0.0019
    126  CG2       71.7270   44.2370   88.6820 C.3   210  VAL210      0.0019
@<TRIPOS>BOND
     1   119   117   ar
     2   118   117   ar
     3   117   116    1
     4    41    39    1
     5   116   113    1
     6    40    39    1
     7    39    36    1
     8   112   113    1
     9   113   114    1
    10   115   114    2
    11    48    49    1
    12    48    47    1
    13    36    37    1
    14    36    35    1
    15    37    38    2
    16    49    50    2
    17    34    33    2
    18    47    46    1
    19    50    52    1
    20    50    51    1
    21    35    33   am
    22    33    32    1
    23    46    43    1
    24    42    43    1
    25    77    78    1
    26    77    74    1
    27    32    31    1
    28    73    74    1
    29    43    44    1
    30    74    75    1
    31    91    89   ar
    32    79    75   am
    33    79    80    1
    34    45    44    2
    35    44    53   am
    36    90    89   ar
    37    75    76    2
    38    89    88    1
    39   120   121    1
    40    80    81    1
    41    53    54    1
    42    88    87    1
    43   126   124    1
    44   121   124    1
    45   121   122    1
    46    83    81   am
    47    83    84    1
    48    64    63    1
    49   125   124    1
    50    81    82    2
    51   123   122    2
    52    63    61   ar
    53    63    62   ar
    54    61    59   ar
    55    71    70    2
    56    54    57    1
    57    54    55    1
    58    62    60   ar
    59    59    58   ar
    60    87    84    1
    61    60    58   ar
    62    58    57    1
    63    84    85    1
    64    56    55    2
    65    55    65   am
    66    72    70   am
    67    70    69    1
    68    85    86    2
    69   111   110    1
    70    65    66    1
    71    69    66    1
    72    66    67    1
    73   110   109   ar
    74   110   108   ar
    75   109   107   ar
    76   108   106   ar
    77    92    93    1
    78    96    93    1
    79    96    97    1
    80   107   105   ar
    81    67    68    2
    82    99    97   am
    83    93    94    1
    84   106   105   ar
    85    17    16    1
    86    97    98    2
    87   105   104    1
    88   102   103    2
    89   102   101    1
    90    18    16    1
    91    16    15    1
    92    94    95    2
    93     7     9   ar
    94     7     6   ar
    95   104   101    1
    96     9    10   ar
    97   101   100    1
    98     5     6    1
    99     5     2    1
   100     6     8   ar
   101    30    29    1
   102    10     8   ar
   103    15    12    1
   104     1     2    1
   105    11    12    1
   106    11     3   am
   107     2     3    1
   108    29    27   ar
   109    29    28   ar
   110    12    13    1
   111     3     4    2
   112    27    25   ar
   113    28    26   ar
   114    13    14    2
   115    25    24   ar
   116    26    24   ar
   117    24    23    1
   118    23    20    1
   119    19    20    1
   120    20    21    1
   121    21    22    2
