@<TRIPOS>MOLECULE
tmp/1x3xA00.pdb
 170 162 0 0 0
SMALL
GASTEIGER

@<TRIPOS>ATOM
      1  N         10.1620    5.6220   13.4340 N.3    22  ILE22      -0.1245
      2  CA         9.9400    6.7880   12.5940 C.3    22  ILE22       0.1561
      3  C          8.5110    7.2440   12.8370 C.2    22  ILE22       0.2260
      4  O          7.6740    6.4770   13.3330 O.2    22  ILE22      -0.2867
      5  CB        10.1530    6.4900   11.0730 C.3    22  ILE22       0.0252
      6  CG1        9.2180    5.3760   10.6010 C.3    22  ILE22       0.0019
      7  CG2       11.6130    6.1620   10.8050 C.3    22  ILE22       0.0019
      8  CD1        7.8310    5.8620   10.1890 C.3    22  ILE22       0.0001
      9  N         10.4960    0.4050   12.8520 N.3    31  MET31      -0.1245
     10  CA        11.0590   -0.1270   11.6110 C.3    31  MET31       0.1570
     11  C         12.3400   -0.9390   11.8060 C.2    31  MET31       0.2261
     12  O         13.0100   -1.2850   10.8310 O.2    31  MET31      -0.2867
     13  CB        11.3730    1.0260   10.6530 C.3    31  MET31       0.0387
     14  CG        10.2770    2.0600   10.5230 C.3    31  MET31       0.0595
     15  SD         8.7340    1.3400    9.9610 S.3    31  MET31      -0.1393
     16  CE         9.2840    0.4940    8.4950 C.3    31  MET31       0.0692
     17  N         12.9550   -3.8490    9.6380 N.3    34  PHE34      -0.1241
     18  CA        12.9890   -3.4890    8.2240 C.3    34  PHE34       0.1605
     19  C         14.3210   -2.9090    7.7470 C.2    34  PHE34       0.2264
     20  O         14.5700   -2.8300    6.5450 O.2    34  PHE34      -0.2867
     21  CB        11.8620   -2.4890    7.9390 C.3    34  PHE34       0.0534
     22  CG        11.7460   -2.0840    6.4970 C.ar   34  PHE34      -0.0203
     23  CD1       11.3670   -3.0060    5.5240 C.ar   34  PHE34      -0.0042
     24  CD2       11.9880   -0.7680    6.1120 C.ar   34  PHE34      -0.0042
     25  CE1       11.2280   -2.6240    4.1900 C.ar   34  PHE34      -0.0003
     26  CE2       11.8510   -0.3750    4.7800 C.ar   34  PHE34      -0.0003
     27  CZ        11.4690   -1.3050    3.8180 C.ar   34  PHE34      -0.0000
     28  N         15.4990   -2.5990    3.6830 N.3    38  HIS38      -0.1227
     29  CA        15.1770   -1.3120    3.0820 C.3    38  HIS38       0.1737
     30  C         15.9030   -1.1470    1.7460 C.2    38  HIS38       0.2438
     31  O         17.1290   -1.1200    1.6930 O.2    38  HIS38      -0.2733
     32  CB        15.5710   -0.1640    4.0120 C.3    38  HIS38       0.0758
     33  CG        15.3160    1.1890    3.4270 C.ar   38  HIS38       0.0818
     34  ND1       16.2810    2.1710    3.3650 N.ar   38  HIS38      -0.2268
     35  CD2       14.2050    1.7160    2.8610 C.ar   38  HIS38       0.1154
     36  CE1       15.7750    3.2440    2.7840 C.ar   38  HIS38       0.1986
     37  NE2       14.5170    2.9950    2.4690 N.ar   38  HIS38      -0.2212
     38  N         15.1480   -1.0430    0.6430 N.am   39  PRO39      -0.2718
     39  CA        15.7580   -0.8840   -0.6810 C.3    39  PRO39       0.1535
     40  C         16.6690    0.3380   -0.8140 C.2    39  PRO39       0.2599
     41  O         17.5440    0.3790   -1.6800 O.2    39  PRO39      -0.2715
     42  CB        14.5480   -0.8130   -1.6060 C.3    39  PRO39       0.0310
     43  CG        13.5600   -1.7060   -0.9120 C.3    39  PRO39       0.0237
     44  CD        13.6950   -1.2580    0.5260 C.3    39  PRO39       0.0939
     45  N         16.4650    1.3320    0.0460 N.am   40  GLY40      -0.1955
     46  CA        17.2850    2.5270   -0.0080 C.3    40  GLY40       0.1869
     47  C         18.5660    2.3940    0.7940 C.2    40  GLY40       0.2309
     48  O         19.3830    3.3160    0.8420 O.2    40  GLY40      -0.2863
     49  N         20.4180    4.7420    4.4400 N.3    43  VAL43      -0.1231
     50  CA        19.8910    6.1020    4.5150 C.3    43  VAL43       0.1692
     51  C         18.5550    6.2270    5.2450 C.2    43  VAL43       0.2591
     52  O         18.1230    7.3350    5.5630 O.2    43  VAL43      -0.2718
     53  CB        19.7630    6.7410    3.1160 C.3    43  VAL43       0.0266
     54  CG1       21.1430    6.8500    2.4740 C.3    43  VAL43       0.0020
     55  CG2       18.8290    5.9190    2.2480 C.3    43  VAL43       0.0020
     56  N         17.9060    5.1000    5.5180 N.am   44  ILE44      -0.1980
     57  CA        16.6460    5.1360    6.2410 C.3    44  ILE44       0.1595
     58  C         16.9080    5.7670    7.6120 C.2    44  ILE44       0.2287
     59  O         16.0180    6.3680    8.2120 O.2    44  ILE44      -0.2864
     60  CB        16.0510    3.7200    6.4160 C.3    44  ILE44       0.0276
     61  CG1       14.7790    3.7900    7.2670 C.3    44  ILE44       0.0022
     62  CG2       17.0750    2.7920    7.0350 C.3    44  ILE44       0.0022
     63  CD1       13.9720    2.4990    7.2640 C.3    44  ILE44       0.0001
     64  N         18.5270    8.3550    8.2040 N.3    46  ASN46      -0.1225
     65  CA        18.5450    9.8130    8.1250 C.3    46  ASN46       0.1785
     66  C         17.3220   10.4270    8.8020 C.2    46  ASN46       0.2597
     67  O         17.3330   11.6030    9.1740 O.2    46  ASN46      -0.2718
     68  CB        18.6260   10.2790    6.6680 C.3    46  ASN46       0.1169
     69  CG        19.9610    9.9430    6.0180 C.2    46  ASN46       0.2627
     70  OD1       20.8890    9.4740    6.6770 O.2    46  ASN46      -0.2716
     71  ND2       20.0620   10.1920    4.7200 N.am   46  ASN46      -0.0877
     72  N         16.2710    9.6270    8.9620 N.am   47  LYS47      -0.1980
     73  CA        15.0550   10.0860    9.6240 C.3    47  LYS47       0.1596
     74  C         14.7330    9.2120   10.8380 C.2    47  LYS47       0.2287
     75  O         13.6250    9.2560   11.3630 O.2    47  LYS47      -0.2864
     76  CB        13.8660   10.0740    8.6530 C.3    47  LYS47       0.0298
     77  CG        13.9130   11.1540    7.5700 C.3    47  LYS47       0.0038
     78  CD        13.8640   12.5600    8.1600 C.3    47  LYS47       0.0206
     79  CE        13.8020   13.6130    7.0580 C.3    47  LYS47       0.1093
     80  NZ        13.7690   15.0000    7.5970 N.3    47  LYS47      -0.1314
     81  N          9.0890   11.1610    9.0790 N.3    52  ALA52      -0.1245
     82  CA         9.4440   10.8150    7.7060 C.3    52  ALA52       0.1562
     83  C          8.2380   10.8600    6.7740 C.2    52  ALA52       0.2260
     84  O          8.2650   10.2870    5.6810 O.2    52  ALA52      -0.2867
     85  CB        10.0650    9.4250    7.6770 C.3    52  ALA52       0.0290
     86  N          8.9430   12.4790    3.2760 N.3    55  VAL55      -0.1231
     87  CA         9.8420   11.5730    2.5710 C.3    55  VAL55       0.1692
     88  C          9.0990   10.3460    2.0400 C.2    55  VAL55       0.2591
     89  O          9.2720    9.9510    0.8860 O.2    55  VAL55      -0.2718
     90  CB        10.9950   11.1070    3.5080 C.3    55  VAL55       0.0266
     91  CG1       11.6260    9.8270    2.9880 C.3    55  VAL55       0.0020
     92  CG2       12.0500   12.2000    3.6040 C.3    55  VAL55       0.0020
     93  N          8.2700    9.7470    2.8860 N.am   56  LEU56      -0.1980
     94  CA         7.5210    8.5580    2.5030 C.3    56  LEU56       0.1596
     95  C          6.4030    8.8230    1.4990 C.2    56  LEU56       0.2287
     96  O          6.0110    7.9280    0.7490 O.2    56  LEU56      -0.2864
     97  CB         6.9470    7.8840    3.7500 C.3    56  LEU56       0.0297
     98  CG         8.0210    7.2440    4.6300 C.3    56  LEU56       0.0022
     99  CD1        7.4290    6.7680    5.9430 C.3    56  LEU56       0.0001
    100  CD2        8.6430    6.0900    3.8640 C.3    56  LEU56       0.0001
    101  N          9.1230   11.1460   -1.9590 N.3    59  LEU59      -0.1245
    102  CA        10.3750   10.7060   -2.5800 C.3    59  LEU59       0.1561
    103  C         10.0170    9.7690   -3.7380 C.2    59  LEU59       0.2260
    104  O          9.2060    8.8630   -3.5750 O.2    59  LEU59      -0.2867
    105  CB        11.2540    9.9730   -1.5630 C.3    59  LEU59       0.0270
    106  CG        12.7200    9.7410   -1.9520 C.3    59  LEU59       0.0019
    107  CD1       13.4450   11.0740   -2.0560 C.3    59  LEU59       0.0001
    108  CD2       13.3890    8.8600   -0.9090 C.3    59  LEU59       0.0001
    109  N         11.2200    7.0280   -5.2870 N.3    61  PRO61      -0.2102
    110  CA        11.1550    5.5820   -5.0370 C.3    61  PRO61       0.1504
    111  C          9.9960    5.1630   -4.1340 C.2    61  PRO61       0.2575
    112  O          9.3990    4.1020   -4.3200 O.2    61  PRO61      -0.2718
    113  CB        12.5070    5.2820   -4.3930 C.3    61  PRO61       0.0282
    114  CG        13.3940    6.3710   -4.9220 C.3    61  PRO61       0.0208
    115  CD        12.5110    7.5740   -4.8380 C.3    61  PRO61       0.0893
    116  N          9.6960    5.9930   -3.1430 N.am   62  HIS62      -0.1976
    117  CA         8.6160    5.7020   -2.2080 C.3    62  HIS62       0.1656
    118  C          7.2590    5.7830   -2.8950 C.2    62  HIS62       0.2291
    119  O          6.3260    5.0630   -2.5340 O.2    62  HIS62      -0.2864
    120  CB         8.6880    6.6760   -1.0330 C.3    62  HIS62       0.0771
    121  CG         9.8620    6.4400   -0.1360 C.ar   62  HIS62       0.0820
    122  ND1       10.3360    7.3920    0.7400 N.ar   62  HIS62      -0.2267
    123  CD2       10.6580    5.3570    0.0190 C.ar   62  HIS62       0.1154
    124  CE1       11.3770    6.9070    1.3920 C.ar   62  HIS62       0.1986
    125  NE2       11.5940    5.6730    0.9740 N.ar   62  HIS62      -0.2212
    126  N          6.8480    5.2900   -6.3000 N.3    64  LYS64      -0.1231
    127  CA         6.8190    4.1850   -7.2520 C.3    64  LYS64       0.1693
    128  C          6.4210    2.8870   -6.5640 C.2    64  LYS64       0.2591
    129  O          5.7110    2.0630   -7.1390 O.2    64  LYS64      -0.2718
    130  CB         8.1930    4.0190   -7.9130 C.3    64  LYS64       0.0285
    131  CG         8.2380    2.9590   -9.0060 C.3    64  LYS64       0.0035
    132  CD         7.3630    3.3490  -10.1900 C.3    64  LYS64       0.0206
    133  CE         7.4440    2.3230  -11.3090 C.3    64  LYS64       0.1093
    134  NZ         6.6120    2.7260  -12.4830 N.3    64  LYS64      -0.1314
    135  N          6.8780    2.7120   -5.3280 N.am   65  ALA65      -0.1980
    136  CA         6.5730    1.5140   -4.5550 C.3    65  ALA65       0.1597
    137  C          5.6390    1.8250   -3.3860 C.2    65  ALA65       0.2287
    138  O          5.7820    1.2530   -2.3050 O.2    65  ALA65      -0.2864
    139  CB         7.8640    0.8980   -4.0300 C.3    65  ALA65       0.0319
    140  N          4.2540   -1.1030   -1.3660 N.3    68  VAL68      -0.1231
    141  CA         5.1810   -1.7000   -0.4080 C.3    68  VAL68       0.1692
    142  C          5.3670   -0.8000    0.8150 C.2    68  VAL68       0.2591
    143  O          5.3780   -1.2790    1.9500 O.2    68  VAL68      -0.2718
    144  CB         6.5640   -1.9590   -1.0430 C.3    68  VAL68       0.0266
    145  CG1        7.4670   -2.6810   -0.0410 C.3    68  VAL68       0.0020
    146  CG2        6.4070   -2.7920   -2.3080 C.3    68  VAL68       0.0020
    147  N          5.5080    0.5010    0.5800 N.am   69  VAL69      -0.1980
    148  CA         5.6900    1.4600    1.6710 C.3    69  VAL69       0.1595
    149  C          4.5080    1.4160    2.6420 C.2    69  VAL69       0.2287
    150  O          4.6910    1.3110    3.8590 O.2    69  VAL69      -0.2864
    151  CB         5.8480    2.9080    1.1300 C.3    69  VAL69       0.0276
    152  CG1        5.8070    3.9160    2.2850 C.3    69  VAL69       0.0022
    153  CG2        7.1700    3.0460    0.3790 C.3    69  VAL69       0.0022
    154  N          4.2960   -1.9050    4.6500 N.3    72  LYS72      -0.1231
    155  CA         5.2570   -1.9170    5.7460 C.3    72  LYS72       0.1693
    156  C          4.8150   -1.0240    6.8970 C.2    72  LYS72       0.2591
    157  O          4.9800   -1.3790    8.0630 O.2    72  LYS72      -0.2718
    158  CB         6.6430   -1.5010    5.2440 C.3    72  LYS72       0.0285
    159  CG         7.4800   -2.6890    4.8190 C.3    72  LYS72       0.0035
    160  CD         7.6160   -3.6570    5.9930 C.3    72  LYS72       0.0206
    161  CE         8.1500   -5.0040    5.5660 C.3    72  LYS72       0.1093
    162  NZ         8.0690   -5.9840    6.6850 N.3    72  LYS72      -0.1314
    163  N          4.2520    0.1320    6.5770 N.am   73  LEU73      -0.1980
    164  CA         3.7710    1.0270    7.6240 C.3    73  LEU73       0.1596
    165  C          2.6280    0.3520    8.3920 C.2    73  LEU73       0.2287
    166  O          2.5850    0.3960    9.6230 O.2    73  LEU73      -0.2864
    167  CB         3.2910    2.3470    7.0150 C.3    73  LEU73       0.0297
    168  CG         4.3990    3.2930    6.5470 C.3    73  LEU73       0.0022
    169  CD1        3.7990    4.4700    5.7820 C.3    73  LEU73       0.0001
    170  CD2        5.1820    3.7840    7.7650 C.3    73  LEU73       0.0001
@<TRIPOS>BOND
     1   134   133    1
     2   133   132    1
     3   132   131    1
     4   131   130    1
     5   130   127    1
     6   127   128    1
     7   127   126    1
     8   129   128    2
     9   128   135   am
    10   135   136    1
    11   109   110    1
    12   109   115    1
    13   110   113    1
    14   110   111    1
    15   114   115    1
    16   114   113    1
    17   136   139    1
    18   136   137    1
    19   112   111    2
    20   111   116   am
    21   103   104    2
    22   103   102    1
    23   137   138    2
    24   116   117    1
    25   118   119    2
    26   118   117    1
    27   102   101    1
    28   102   105    1
    29   146   144    1
    30   117   120    1
    31   107   106    1
    32   106   105    1
    33   106   108    1
    34    41    40    2
    35    42    43    1
    36    42    39    1
    37   140   141    1
    38   144   141    1
    39   144   145    1
    40   120   121    1
    41    43    44    1
    42    40    39    1
    43    40    45   am
    44    39    38    1
    45   141   142    1
    46   121   123   ar
    47   121   122   ar
    48    46    45    1
    49    46    47    1
    50   123   125   ar
    51   153   151    1
    52    44    38    1
    53   147   142   am
    54   147   148    1
    55    38    30   am
    56   122   124   ar
    57    96    95    2
    58    47    48    2
    59   142   143    2
    60    89    88    2
    61   125   124   ar
    62   151   148    1
    63   151   152    1
    64    95    94    1
    65   148   149    1
    66    31    30    2
    67    30    29    1
    68    88    87    1
    69    88    93   am
    70    55    53    1
    71    37    36   ar
    72    37    35   ar
    73    54    53    1
    74    94    93    1
    75    94    97    1
    76    87    86    1
    77    87    90    1
    78   149   150    2
    79    36    34   ar
    80    35    33   ar
    81    91    90    1
    82    29    28    1
    83    29    32    1
    84    53    50    1
    85    34    33   ar
    86    33    32    1
    87    90    92    1
    88    97    98    1
    89    27    25   ar
    90    27    26   ar
    91   100    98    1
    92    25    23   ar
    93    49    50    1
    94    50    51    1
    95    98    99    1
    96   154   155    1
    97    71    69   am
    98    26    24   ar
    99   159   158    1
   100   159   160    1
   101   158   155    1
   102    51    56   am
   103    51    52    2
   104    56    57    1
   105    23    22   ar
   106   161   160    1
   107   161   162    1
   108    84    83    2
   109   155   156    1
   110   169   168    1
   111    69    68    1
   112    69    70    2
   113    24    22   ar
   114    57    60    1
   115    57    58    1
   116    60    62    1
   117    60    61    1
   118    22    21    1
   119    20    19    2
   120   168   167    1
   121   168   170    1
   122   163   156   am
   123   163   164    1
   124    68    65    1
   125    83    82    1
   126   156   157    2
   127   167   164    1
   128    79    80    1
   129    79    78    1
   130    63    61    1
   131    77    78    1
   132    77    76    1
   133    58    59    2
   134   164   165    1
   135    85    82    1
   136    82    81    1
   137    19    18    1
   138    21    18    1
   139    65    64    1
   140    65    66    1
   141    18    17    1
   142   165   166    2
   143    16    15    1
   144    76    73    1
   145    66    72   am
   146    66    67    2
   147    72    73    1
   148    73    74    1
   149    15    14    1
   150     8     6    1
   151    14    13    1
   152     6     5    1
   153    13    10    1
   154     7     5    1
   155    12    11    2
   156    74    75    2
   157     5     2    1
   158    10    11    1
   159    10     9    1
   160     2     3    1
   161     2     1    1
   162     3     4    2
