@<TRIPOS>MOLECULE
tmp/1x3zA00.pdb
 128 126 0 0 0
SMALL
GASTEIGER

@<TRIPOS>ATOM
      1  N         67.2950   30.5340   86.1160 N.3   116  TRP116     -0.1241
      2  CA        67.4760   31.5800   85.1180 C.3   116  TRP116      0.1605
      3  C         66.4160   31.4620   84.0370 C.2   116  TRP116      0.2264
      4  O         66.1680   30.3710   83.5160 O.2   116  TRP116     -0.2867
      5  CB        68.8630   31.5290   84.4640 C.3   116  TRP116      0.0550
      6  CG        69.0450   32.7080   83.5600 C.ar  116  TRP116      0.0003
      7  CD1       68.6000   32.8300   82.2840 C.ar  116  TRP116      0.0946
      8  CD2       69.6620   33.9570   83.8920 C.ar  116  TRP116      0.0152
      9  NE1       68.9120   34.0720   81.7910 N.ar  116  TRP116     -0.2442
     10  CE2       69.5670   34.7800   82.7610 C.ar  116  TRP116      0.0810
     11  CE3       70.2850   34.4570   85.0390 C.ar  116  TRP116      0.0012
     12  CZ2       70.0740   36.0650   82.7370 C.ar  116  TRP116      0.0191
     13  CZ3       70.7850   35.7300   85.0140 C.ar  116  TRP116      0.0001
     14  CH2       70.6800   36.5250   83.8710 C.ar  116  TRP116      0.0015
     15  N         55.8280   45.7710   83.7710 N.3   152  THR152     -0.1218
     16  CA        55.9270   45.2750   82.3820 C.3   152  THR152      0.1862
     17  C         56.0530   43.7490   82.3010 C.2   152  THR152      0.2287
     18  O         56.8170   43.1280   83.0480 O.2   152  THR152     -0.2866
     19  CB        57.0930   45.9590   81.5620 C.3   152  THR152      0.1770
     20  OG1       57.3980   45.1710   80.4070 O.3   152  THR152     -0.2211
     21  CG2       58.3750   46.1530   82.4020 C.3   152  THR152      0.0375
     22  N         56.9260   40.6600   79.6560 N.3   154  GLU154     -0.1245
     23  CA        57.3890   40.1520   78.3660 C.3   154  GLU154      0.1567
     24  C         56.5380   38.9530   78.0660 C.2   154  GLU154      0.2260
     25  O         56.3300   38.1110   78.9430 O.2   154  GLU154     -0.2867
     26  CB        58.8370   39.7330   78.4390 C.3   154  GLU154      0.0388
     27  CG        59.7760   40.8850   78.7060 C.3   154  GLU154      0.1160
     28  CD        61.2300   40.4420   78.8120 C.2   154  GLU154      0.3649
     29  OE1       62.0640   41.2740   79.2630 O.co2 154  GLU154     -0.2457
     30  OE2       61.5270   39.2710   78.4410 O.co2 154  GLU154     -0.2457
     31  N         57.7790   40.9810   84.8530 N.3   169  ARG169     -0.1231
     32  CA        58.9820   41.3690   85.5430 C.3   169  ARG169      0.1694
     33  C         58.7860   42.2090   86.8400 C.2   169  ARG169      0.2592
     34  O         58.5390   43.4260   86.8180 O.2   169  ARG169     -0.2718
     35  CB        60.0270   41.8380   84.5390 C.3   169  ARG169      0.0321
     36  CG        60.5650   40.6290   83.7890 C.3   169  ARG169      0.0489
     37  CD        61.1670   41.0170   82.4770 C.3   169  ARG169      0.2205
     38  NE        62.5750   41.4000   82.5610 N.pl3 169  ARG169     -0.0865
     39  CZ        63.4410   40.9220   83.4450 C.cat 169  ARG169      0.5346
     40  NH1       63.0450   40.0170   84.3370 N.pl3 169  ARG169      0.1354
     41  NH2       64.7010   41.3450   83.4230 N.pl3 169  ARG169      0.1354
     42  N         58.9060   41.4820   87.9560 N.am  170  TYR170     -0.1962
     43  CA        58.5390   41.8970   89.2910 C.3   170  TYR170      0.1771
     44  C         59.6950   42.4660   90.0610 C.2   170  TYR170      0.2619
     45  O         60.7940   41.9300   89.9700 O.2   170  TYR170     -0.2715
     46  CB        58.1830   40.6540   90.0560 C.3   170  TYR170      0.0574
     47  CG        56.9490   39.9360   89.6320 C.ar  170  TYR170     -0.0198
     48  CD1       55.7850   40.6290   89.2880 C.ar  170  TYR170     -0.0009
     49  CD2       56.9170   38.5300   89.6390 C.ar  170  TYR170     -0.0009
     50  CE1       54.6150   39.9320   88.9330 C.ar  170  TYR170      0.0417
     51  CE2       55.7540   37.8190   89.2930 C.ar  170  TYR170      0.0417
     52  CZ        54.6110   38.5240   88.9420 C.ar  170  TYR170      0.1957
     53  OH        53.4830   37.8230   88.5950 O.3   170  TYR170     -0.2866
     54  N         59.4500   43.4820   90.8890 N.am  171  ASN171     -0.1972
     55  CA        60.4900   43.9670   91.8200 C.3   171  ASN171      0.1688
     56  C         60.3140   43.6150   93.2870 C.2   171  ASN171      0.2292
     57  O         61.2370   43.8380   94.0790 O.2   171  ASN171     -0.2864
     58  CB        60.6920   45.4650   91.7080 C.3   171  ASN171      0.1181
     59  CG        61.1110   45.8730   90.3440 C.2   171  ASN171      0.2629
     60  OD1       60.4450   46.6860   89.7020 O.2   171  ASN171     -0.2716
     61  ND2       62.2130   45.2950   89.8620 N.am  171  ASN171     -0.0877
     62  N         65.9880   37.1640   85.5450 N.3   183  ARG183     -0.1231
     63  CA        67.2630   37.5530   85.0040 C.3   183  ARG183      0.1694
     64  C         68.0520   38.3120   86.0380 C.2   183  ARG183      0.2592
     65  O         67.6860   38.3090   87.2120 O.2   183  ARG183     -0.2718
     66  CB        67.0620   38.3630   83.7510 C.3   183  ARG183      0.0321
     67  CG        66.5400   37.4740   82.6820 C.3   183  ARG183      0.0489
     68  CD        66.1420   38.2400   81.4870 C.3   183  ARG183      0.2205
     69  NE        65.1480   37.5030   80.7210 N.pl3 183  ARG183     -0.0865
     70  CZ        64.2580   38.0830   79.9270 C.cat 183  ARG183      0.5346
     71  NH1       64.2370   39.4060   79.8000 N.pl3 183  ARG183      0.1354
     72  NH2       63.3840   37.3420   79.2630 N.pl3 183  ARG183      0.1354
     73  N         69.1440   38.9490   85.6270 N.am  184  CYS184     -0.1956
     74  CA        70.0390   39.5650   86.5950 C.3   184  CYS184      0.1843
     75  C         69.2610   40.4700   87.5400 C.2   184  CYS184      0.2626
     76  O         69.5350   40.5020   88.7250 O.2   184  CYS184     -0.2714
     77  CB        71.1450   40.3410   85.8970 C.3   184  CYS184      0.0997
     78  SG        70.5740   41.8810   85.0690 S.3   184  CYS184     -0.0797
     79  N         68.2680   41.1740   87.0070 N.am  185  GLY185     -0.1940
     80  CA        67.4340   42.0640   87.7970 C.3   185  GLY185      0.2014
     81  C         66.9070   41.3460   89.0100 C.2   185  GLY185      0.2638
     82  O         67.2520   41.6910   90.1560 O.2   185  GLY185     -0.2714
     83  N         66.0860   40.3320   88.7620 N.am  186  GLU186     -0.1977
     84  CA        65.5170   39.5680   89.8550 C.3   186  GLU186      0.1602
     85  C         66.6000   38.8440   90.6010 C.2   186  GLU186      0.2287
     86  O         66.5970   38.8470   91.8260 O.2   186  GLU186     -0.2864
     87  CB        64.3930   38.6160   89.4340 C.3   186  GLU186      0.0415
     88  CG        64.3080   38.2500   87.9870 C.3   186  GLU186      0.1163
     89  CD        63.6420   39.3140   87.1510 C.2   186  GLU186      0.3649
     90  OE1       62.3900   39.3380   87.0380 O.co2 186  GLU186     -0.2457
     91  OE2       64.3980   40.1280   86.5840 O.co2 186  GLU186     -0.2457
     92  N         74.0150   47.1750   96.8740 N.3   204  TYR204     -0.1241
     93  CA        73.4450   46.7950   95.5890 C.3   204  TYR204      0.1605
     94  C         74.1160   47.6800   94.5600 C.2   204  TYR204      0.2264
     95  O         73.9980   48.9120   94.6210 O.2   204  TYR204     -0.2867
     96  CB        71.9500   47.0790   95.5950 C.3   204  TYR204      0.0534
     97  CG        71.2050   46.8350   94.2930 C.ar  204  TYR204     -0.0201
     98  CD1       70.4730   45.6550   94.1040 C.ar  204  TYR204     -0.0009
     99  CD2       71.1910   47.7760   93.2770 C.ar  204  TYR204     -0.0009
    100  CE1       69.7730   45.4060   92.9440 C.ar  204  TYR204      0.0417
    101  CE2       70.4980   47.5330   92.1090 C.ar  204  TYR204      0.0417
    102  CZ        69.7930   46.3450   91.9610 C.ar  204  TYR204      0.1957
    103  OH        69.0970   46.0740   90.8170 O.3   204  TYR204     -0.2866
    104  N         73.0240   48.1660   81.7270 N.3   210  ASP210     -0.1225
    105  CA        72.1220   47.0330   81.9740 C.3   210  ASP210      0.1805
    106  C         72.7870   45.7740   82.6040 C.2   210  ASP210      0.2598
    107  O         72.7780   44.6800   82.0190 O.2   210  ASP210     -0.2718
    108  CB        71.3400   46.7150   80.6800 C.3   210  ASP210      0.1424
    109  CG        70.2520   45.6390   80.8670 C.2   210  ASP210      0.3668
    110  OD1       69.6860   45.1680   79.8390 O.co2 210  ASP210     -0.2456
    111  OD2       69.9580   45.2600   82.0300 O.co2 210  ASP210     -0.2456
    112  N         73.3820   45.9640   83.7880 N.am  211  HIS211     -0.1961
    113  CA        73.7850   44.8620   84.6690 C.3   211  HIS211      0.1787
    114  C         73.9320   45.2760   86.1060 C.2   211  HIS211      0.2620
    115  O         74.3830   46.3760   86.3920 O.2   211  HIS211     -0.2715
    116  CB        75.0840   44.2040   84.2490 C.3   211  HIS211      0.0785
    117  CG        75.2840   42.8710   84.8890 C.ar  211  HIS211      0.0821
    118  ND1       74.3700   41.8480   84.7600 N.ar  211  HIS211     -0.2267
    119  CD2       76.2720   42.3950   85.6810 C.ar  211  HIS211      0.1154
    120  CE1       74.7900   40.7950   85.4370 C.ar  211  HIS211      0.1986
    121  NE2       75.9410   41.1010   86.0080 N.ar  211  HIS211     -0.2212
    122  N         73.5700   44.3740   87.0110 N.am  212  VAL212     -0.1977
    123  CA        73.5780   44.6750   88.4310 C.3   212  VAL212      0.1596
    124  C         74.1180   43.5110   89.2400 C.2   212  VAL212      0.2287
    125  O         74.0250   42.3570   88.8380 O.2   212  VAL212     -0.2864
    126  CB        72.1760   45.0350   88.9460 C.3   212  VAL212      0.0276
    127  CG1       71.7510   46.3940   88.4300 C.3   212  VAL212      0.0022
    128  CG2       71.1710   43.9610   88.5580 C.3   212  VAL212      0.0022
@<TRIPOS>BOND
     1    24    23    1
     2    24    25    2
     3    23    26    1
     4    23    22    1
     5    26    27    1
     6    30    28   ar
     7    27    28    1
     8    28    29   ar
     9    72    70    1
    10    71    70    1
    11   110   109   ar
    12    70    69    2
    13    20    19    1
    14   108   109    1
    15   108   105    1
    16    69    68    1
    17   109   111   ar
    18    68    67    1
    19    19    16    1
    20    19    21    1
    21   104   105    1
    22     9     7   ar
    23     9    10   ar
    24   105   106    1
    25   107   106    2
    26     7     6   ar
    27    17    16    1
    28    17    18    2
    29    16    15    1
    30    37    38    1
    31    37    36    1
    32    38    39    2
    33   106   112   am
    34    67    66    1
    35    12    10   ar
    36    12    14   ar
    37    10     8   ar
    38    41    39    1
    39    39    40    1
    40     4     3    2
    41     6     8   ar
    42     6     5    1
    43    66    63    1
    44   112   113    1
    45    36    35    1
    46    14    13   ar
    47     8    11   ar
    48     3     2    1
    49   116   113    1
    50   116   117    1
    51     5     2    1
    52    35    32    1
    53   113   114    1
    54   118   117   ar
    55   118   120   ar
    56    31    32    1
    57   117   119   ar
    58    63    62    1
    59    63    64    1
    60    13    11   ar
    61    78    77    1
    62     2     1    1
    63   120   121   ar
    64    32    33    1
    65    73    64   am
    66    73    74    1
    67   119   121   ar
    68    77    74    1
    69    64    65    2
    70   114   115    2
    71   114   122   am
    72    91    89   ar
    73    74    75    1
    74    34    33    2
    75    33    42   am
    76    79    75   am
    77    79    80    1
    78   122   123    1
    79    90    89   ar
    80    89    88    1
    81    75    76    2
    82    80    81    1
    83    42    43    1
    84    88    87    1
    85   127   126    1
    86   123   126    1
    87   123   124    1
    88   128   126    1
    89    53    52    1
    90    83    81   am
    91    83    84    1
    92   125   124    2
    93    50    52   ar
    94    50    48   ar
    95    52    51   ar
    96    81    82    2
    97    48    47   ar
    98    43    46    1
    99    43    44    1
   100    51    49   ar
   101    87    84    1
   102    47    49   ar
   103    47    46    1
   104    60    59    2
   105    84    85    1
   106    61    59   am
   107    45    44    2
   108    44    54   am
   109    59    58    1
   110    85    86    2
   111   103   102    1
   112    54    55    1
   113    58    55    1
   114    55    56    1
   115   102   101   ar
   116   102   100   ar
   117   101    99   ar
   118   100    98   ar
   119    99    97   ar
   120    56    57    2
   121    98    97   ar
   122    97    96    1
   123    94    95    2
   124    94    93    1
   125    93    96    1
   126    93    92    1
