@<TRIPOS>MOLECULE
tmp/1x46A00.pdb
 188 182 0 0 0
SMALL
GASTEIGER

@<TRIPOS>ATOM
      1  N         -2.1260    2.3740    8.3280 N.3    33  PHE33      -0.1241
      2  CA        -0.7560    2.6370    7.9140 C.3    33  PHE33       0.1605
      3  C         -0.0940    1.3740    7.4170 C.2    33  PHE33       0.2264
      4  O          0.4450    1.3780    6.3020 O.2    33  PHE33      -0.2867
      5  CB         0.0170    3.2930    9.0890 C.3    33  PHE33       0.0534
      6  CG         1.4920    3.5010    8.8100 C.ar   33  PHE33      -0.0203
      7  CD1        1.9160    4.0880    7.6240 C.ar   33  PHE33      -0.0042
      8  CD2        2.4620    3.0830    9.7420 C.ar   33  PHE33      -0.0042
      9  CE1        3.2860    4.2800    7.3640 C.ar   33  PHE33      -0.0003
     10  CE2        3.8290    3.2580    9.4890 C.ar   33  PHE33      -0.0003
     11  CZ         4.2410    3.8810    8.2990 C.ar   33  PHE33      -0.0000
     12  N          6.6200   -0.9330    5.6530 N.3    40  SER40      -0.1217
     13  CA         6.9020   -0.2670    6.9310 C.3    40  SER40       0.1889
     14  C          6.7360   -1.2140    8.1160 C.2    40  SER40       0.2288
     15  O          7.5250   -1.1780    9.0570 O.2    40  SER40      -0.2866
     16  CB         5.9860    0.9200    7.0680 C.3    40  SER40       0.2089
     17  OG         6.2950    1.7940    6.0130 O.3    40  SER40      -0.2183
     18  N          9.6870   -3.2700    9.4050 N.3    43  LYS43      -0.1231
     19  CA        10.7430   -2.6540   10.2280 C.3    43  LYS43       0.1693
     20  C         10.5540   -2.8780   11.7270 C.2    43  LYS43       0.2592
     21  O         11.4860   -2.6570   12.5290 O.2    43  LYS43      -0.2718
     22  CB        10.8130   -1.1590    9.9400 C.3    43  LYS43       0.0285
     23  CG        11.0270   -0.8430    8.4750 C.3    43  LYS43       0.0035
     24  CD        11.4610    0.5930    8.2810 C.3    43  LYS43       0.0206
     25  CE        11.6490    0.9020    6.8140 C.3    43  LYS43       0.1093
     26  NZ        13.0130    0.4950    6.3960 N.3    43  LYS43      -0.1314
     27  N          9.3510   -3.2850   12.1200 N.am   44  PHE44      -0.1962
     28  CA         9.0120   -3.3660   13.5510 C.3    44  PHE44       0.1771
     29  C          9.3330   -4.7040   14.1790 C.2    44  PHE44       0.2620
     30  O          8.8990   -5.7280   13.6860 O.2    44  PHE44      -0.2715
     31  CB         7.5370   -3.0560   13.7810 C.3    44  PHE44       0.0574
     32  CG         7.1740   -1.6230   13.5330 C.ar   44  PHE44      -0.0200
     33  CD1        6.9250   -0.7460   14.5980 C.ar   44  PHE44      -0.0042
     34  CD2        7.1280   -1.1270   12.2330 C.ar   44  PHE44      -0.0042
     35  CE1        6.5950    0.5730   14.3650 C.ar   44  PHE44      -0.0003
     36  CE2        6.8090    0.1950   12.0090 C.ar   44  PHE44      -0.0003
     37  CZ         6.5490    1.0430   13.0690 C.ar   44  PHE44      -0.0000
     38  N         10.0340   -4.6970   15.3110 N.am   45  SER45      -0.1936
     39  CA        10.3820   -5.9370   15.9900 C.3    45  SER45       0.2055
     40  C          9.1670   -6.7690   16.3910 C.2    45  SER45       0.2642
     41  O          9.1890   -8.0020   16.2830 O.2    45  SER45      -0.2714
     42  CB        11.2540   -5.6770   17.2260 C.3    45  SER45       0.2130
     43  OG        12.4270   -4.9930   16.8470 O.3    45  SER45      -0.2179
     44  N          8.0990   -6.1060   16.8310 N.am   46  ALA46      -0.1977
     45  CA         6.9180   -6.8190   17.2720 C.3    46  ALA46       0.1597
     46  C          6.0120   -7.2620   16.1200 C.2    46  ALA46       0.2287
     47  O          5.1670   -8.1160   16.3240 O.2    46  ALA46      -0.2864
     48  CB         6.0920   -5.9750   18.2740 C.3    46  ALA46       0.0319
     49  N          1.7580   -0.2340   20.5280 N.3    64  HIS64      -0.1241
     50  CA         2.5080    0.6400   19.6370 C.3    64  HIS64       0.1621
     51  C          1.6030    1.7810   19.0850 C.2    64  HIS64       0.2264
     52  O          2.0370    2.9320   18.9620 O.2    64  HIS64      -0.2867
     53  CB         3.1710   -0.0940   18.4740 C.3    64  HIS64       0.0745
     54  CG         4.0730    0.8140   17.7390 C.ar   64  HIS64       0.0817
     55  ND1        5.2290    1.2880   18.3190 N.ar   64  HIS64      -0.2268
     56  CD2        3.8980    1.5240   16.6000 C.ar   64  HIS64       0.1154
     57  CE1        5.7770    2.1840   17.5200 C.ar   64  HIS64       0.1986
     58  NE2        4.9770    2.3690   16.4890 N.ar   64  HIS64      -0.2212
     59  N          1.4170    4.3870   21.6520 N.3    67  ARG67      -0.1231
     60  CA         2.6660    5.1460   21.7160 C.3    67  ARG67       0.1694
     61  C          2.7390    6.2220   20.6270 C.2    67  ARG67       0.2591
     62  O          3.1260    7.3570   20.9240 O.2    67  ARG67      -0.2718
     63  CB         3.8690    4.2030   21.6050 C.3    67  ARG67       0.0321
     64  CG         4.0550    3.3680   22.8520 C.3    67  ARG67       0.0489
     65  CD         5.1820    2.3280   22.7130 C.3    67  ARG67       0.2205
     66  NE         5.5180    1.7840   24.0240 N.pl3  67  ARG67      -0.0865
     67  CZ         6.0240    0.5900   24.2610 C.cat  67  ARG67       0.5346
     68  NH1        6.2990   -0.2590   23.2600 N.pl3  67  ARG67       0.1354
     69  NH2        6.2470    0.2510   25.5360 N.pl3  67  ARG67       0.1354
     70  N          2.3920    5.8860   19.3720 N.am   68  ILE68      -0.1980
     71  CA         2.4560    6.8400   18.2570 C.3    68  ILE68       0.1595
     72  C          1.5020    7.9800   18.5450 C.2    68  ILE68       0.2287
     73  O          1.8580    9.1530   18.4420 O.2    68  ILE68      -0.2864
     74  CB         2.0360    6.1820   16.9090 C.3    68  ILE68       0.0276
     75  CG1        3.1030    5.1750   16.4720 C.3    68  ILE68       0.0022
     76  CG2        1.8510    7.2700   15.7870 C.3    68  ILE68       0.0022
     77  CD1        2.6730    4.3580   15.2370 C.3    68  ILE68       0.0001
     78  N          2.3760   10.6870   21.1440 N.3    71  VAL71      -0.1231
     79  CA         3.2780   11.7420   20.6690 C.3    71  VAL71       0.1692
     80  C          2.5310   12.7040   19.7580 C.2    71  VAL71       0.2591
     81  O          2.6710   13.9200   19.8810 O.2    71  VAL71      -0.2718
     82  CB         4.4720   11.1180   19.9260 C.3    71  VAL71       0.0266
     83  CG1        5.3420   12.2120   19.2650 C.3    71  VAL71       0.0020
     84  CG2        5.3060   10.3080   20.8830 C.3    71  VAL71       0.0020
     85  N          1.7180   12.1890   18.8500 N.am   72  ILE72      -0.1980
     86  CA         0.9530   13.1020   17.9920 C.3    72  ILE72       0.1595
     87  C          0.0440   14.0050   18.8130 C.2    72  ILE72       0.2287
     88  O         -0.0280   15.2000   18.5520 O.2    72  ILE72      -0.2864
     89  CB         0.1510   12.3250   16.8960 C.3    72  ILE72       0.0276
     90  CG1        1.1030   11.5320   16.0080 C.3    72  ILE72       0.0022
     91  CG2       -0.6750   13.3010   16.0220 C.3    72  ILE72       0.0022
     92  CD1        0.4320   10.6150   14.9520 C.3    72  ILE72       0.0001
     93  N         11.9090   12.8090   17.9330 N.3    95  GLN95      -0.1245
     94  CA        11.3400   11.7500   17.0830 C.3    95  GLN95       0.1566
     95  C         12.1930   11.5200   15.8480 C.2    95  GLN95       0.2260
     96  O         12.3920   10.3850   15.4390 O.2    95  GLN95      -0.2867
     97  CB         9.8820   12.0390   16.6940 C.3    95  GLN95       0.0367
     98  CG         8.9010   12.0120   17.8890 C.3    95  GLN95       0.0905
     99  CD         8.9230   10.6780   18.6000 C.2    95  GLN95       0.2608
    100  OE1        8.8720    9.6300   17.9520 O.2    95  GLN95      -0.2717
    101  NE2        9.0580   10.7000   19.9220 N.am   95  GLN95      -0.0878
    102  N         15.2960    9.6340   17.0820 N.3    98  ASN98      -0.1225
    103  CA        14.9730    8.2490   17.4140 C.3    98  ASN98       0.1785
    104  C         14.7600    7.4120   16.1540 C.2    98  ASN98       0.2597
    105  O         15.1730    6.2530   16.0830 O.2    98  ASN98      -0.2718
    106  CB        13.7260    8.1570   18.2920 C.3    98  ASN98       0.1169
    107  CG        13.9050    8.8000   19.6590 C.2    98  ASN98       0.2627
    108  OD1       15.0230    9.1500   20.0670 O.2    98  ASN98      -0.2716
    109  ND2       12.8010    8.9720   20.3630 N.am   98  ASN98      -0.0877
    110  N         14.1040    7.9930   15.1540 N.am   99  HIS99      -0.1975
    111  CA        13.8070    7.2460   13.9480 C.3    99  HIS99       0.1656
    112  C         15.0040    7.1090   13.0140 C.2    99  HIS99       0.2291
    113  O         15.0510    6.1820   12.2160 O.2    99  HIS99      -0.2864
    114  CB        12.5700    7.8180   13.2410 C.3    99  HIS99       0.0771
    115  CG        11.2930    7.4480   13.9300 C.ar   99  HIS99       0.0820
    116  ND1       10.7490    8.2010   14.9560 N.ar   99  HIS99      -0.2267
    117  CD2       10.4840    6.3760   13.7780 C.ar   99  HIS99       0.1154
    118  CE1        9.6480    7.6100   15.3880 C.ar   99  HIS99       0.1986
    119  NE2        9.4580    6.5060   14.6880 N.ar   99  HIS99      -0.2212
    120  N         16.5560    3.8670   13.3880 N.3   102  ARG102     -0.1245
    121  CA        15.7330    2.7590   12.9150 C.3   102  ARG102      0.1563
    122  C         15.7010    2.6460   11.3980 C.2   102  ARG102      0.2260
    123  O         14.9550    1.8390   10.8730 O.2   102  ARG102     -0.2867
    124  CB        14.3020    2.9480   13.4160 C.3   102  ARG102      0.0307
    125  CG        14.2220    3.0000   14.9730 C.3   102  ARG102      0.0489
    126  CD        12.9230    3.5450   15.4860 C.3   102  ARG102      0.2205
    127  NE        12.9630    3.6790   16.9320 N.pl3 102  ARG102     -0.0865
    128  CZ        12.3520    4.6210   17.6360 C.cat 102  ARG102      0.5346
    129  NH1       11.5680    5.5240   17.0500 N.pl3 102  ARG102      0.1354
    130  NH2       12.5300    4.6590   18.9570 N.pl3 102  ARG102      0.1354
    131  N         14.5460    4.8420    9.2420 N.3   104  VAL104     -0.1245
    132  CA        13.3210    5.4020    8.6730 C.3   104  VAL104      0.1561
    133  C         13.6760    6.6390    7.8540 C.2   104  VAL104      0.2260
    134  O         14.4070    7.5220    8.3470 O.2   104  VAL104     -0.2867
    135  CB        12.3180    5.7450    9.8070 C.3   104  VAL104      0.0252
    136  CG1       11.0830    6.4340    9.2500 C.3   104  VAL104      0.0019
    137  CG2       11.9290    4.4740   10.5650 C.3   104  VAL104      0.0019
    138  N          9.4420    7.5710    4.0720 N.3   108  HIS108     -0.1226
    139  CA         8.6270    6.8040    5.0280 C.3   108  HIS108      0.1752
    140  C          7.6960    7.6970    5.8110 C.2   108  HIS108      0.2596
    141  O          6.5360    7.3420    6.0380 O.2   108  HIS108     -0.2718
    142  CB         9.4580    6.0060    6.0390 C.3   108  HIS108      0.0759
    143  CG        10.2550    4.9230    5.4360 C.ar  108  HIS108      0.0818
    144  ND1        9.8310    4.2340    4.3210 N.ar  108  HIS108     -0.2268
    145  CD2       11.4200    4.3810    5.8180 C.ar  108  HIS108      0.1154
    146  CE1       10.7550    3.3520    3.9940 C.ar  108  HIS108      0.1986
    147  NE2       11.7220    3.4040    4.8980 N.ar  108  HIS108     -0.2212
    148  N          8.1890    8.8500    6.2620 N.am  109  PHE109     -0.1976
    149  CA         7.2960    9.8110    6.9400 C.3   109  PHE109      0.1639
    150  C          6.2010   10.3200    6.0240 C.2   109  PHE109      0.2290
    151  O          5.0370   10.4220    6.4130 O.2   109  PHE109     -0.2864
    152  CB         8.0940   10.9430    7.6070 C.3   109  PHE109      0.0560
    153  CG         8.6630   10.5520    8.9550 C.ar  109  PHE109     -0.0200
    154  CD1        7.8400   10.4960   10.0830 C.ar  109  PHE109     -0.0042
    155  CD2       10.0090   10.2160    9.0870 C.ar  109  PHE109     -0.0042
    156  CE1        8.3390   10.1210   11.3130 C.ar  109  PHE109     -0.0003
    157  CE2       10.5300    9.8450   10.3290 C.ar  109  PHE109     -0.0003
    158  CZ         9.7150    9.7940   11.4410 C.ar  109  PHE109     -0.0000
    159  N          3.5060    7.7760    5.8270 N.3   112  PHE112     -0.1241
    160  CA         2.6400    7.8400    7.0150 C.3   112  PHE112      0.1605
    161  C          1.6290    8.9750    6.8440 C.2   112  PHE112      0.2264
    162  O          0.4350    8.8250    7.1190 O.2   112  PHE112     -0.2867
    163  CB         3.4870    8.0450    8.2910 C.3   112  PHE112      0.0534
    164  CG         2.6540    8.0570    9.5440 C.ar  112  PHE112     -0.0203
    165  CD1        2.4660    6.8830   10.2530 C.ar  112  PHE112     -0.0042
    166  CD2        2.0110    9.2280    9.9720 C.ar  112  PHE112     -0.0042
    167  CE1        1.6660    6.8700   11.3960 C.ar  112  PHE112     -0.0003
    168  CE2        1.2110    9.2270   11.1220 C.ar  112  PHE112     -0.0003
    169  CZ         1.0420    8.0150   11.8130 C.ar  112  PHE112     -0.0000
    170  N          2.3440   19.1520    8.4170 N.3   139  PHE139     -0.1241
    171  CA         3.3840   18.2050    8.0320 C.3   139  PHE139      0.1605
    172  C          4.6360   18.8710    7.4650 C.2   139  PHE139      0.2264
    173  O          5.7410   18.4460    7.7740 O.2   139  PHE139     -0.2867
    174  CB         2.8460   17.1330    7.0720 C.3   139  PHE139      0.0534
    175  CG         2.1850   15.9750    7.7750 C.ar  139  PHE139     -0.0203
    176  CD1        2.9610   15.0400    8.4430 C.ar  139  PHE139     -0.0042
    177  CD2        0.8140   15.8190    7.7750 C.ar  139  PHE139     -0.0042
    178  CE1        2.3640   13.9360    9.1170 C.ar  139  PHE139     -0.0003
    179  CE2        0.2280   14.7300    8.4430 C.ar  139  PHE139     -0.0003
    180  CZ         1.0080   13.8110    9.1010 C.ar  139  PHE139     -0.0000
    181  N          6.5100   19.9980   10.4750 N.3   142  MET142     -0.1245
    182  CA         7.1170   18.8270   11.1190 C.3   142  MET142      0.1570
    183  C          8.3830   18.3830   10.3600 C.2   142  MET142      0.2261
    184  O          9.4520   18.1550   10.9590 O.2   142  MET142     -0.2867
    185  CB         6.1070   17.6640   11.1820 C.3   142  MET142      0.0387
    186  CG         6.7200   16.3310   11.5680 C.3   142  MET142      0.0595
    187  SD         5.4770   14.9900   11.2500 S.3   142  MET142     -0.1393
    188  CE         6.5560   13.5750   11.0750 C.3   142  MET142      0.0692
@<TRIPOS>BOND
     1   146   144   ar
     2   146   147   ar
     3   138   139    1
     4   144   143   ar
     5   147   145   ar
     6   139   140    1
     7   139   142    1
     8   143   145   ar
     9   143   142    1
    10    12    13    1
    11   140   141    2
    12   140   148   am
    13   159   160    1
    14    17    16    1
    15   150   151    2
    16   150   149    1
    17   148   149    1
    18     4     3    2
    19    26    25    1
    20    25    24    1
    21   161   160    1
    22   161   162    2
    23    13    16    1
    24    13    14    1
    25   149   152    1
    26   160   163    1
    27   174   175    1
    28   174   171    1
    29     9     7   ar
    30     9    11   ar
    31     3     2    1
    32   172   173    2
    33   172   171    1
    34   152   153    1
    35     7     6   ar
    36   177   175   ar
    37   177   179   ar
    38   175   176   ar
    39   133   134    2
    40   133   132    1
    41     2     1    1
    42     2     5    1
    43   171   170    1
    44    14    15    2
    45    24    23    1
    46   163   164    1
    47    11    10   ar
    48   176   178   ar
    49   179   180   ar
    50    23    22    1
    51   132   131    1
    52   132   135    1
    53     6     5    1
    54     6     8   ar
    55   153   155   ar
    56   153   154   ar
    57   155   157   ar
    58   180   178   ar
    59   136   135    1
    60    18    19    1
    61    10     8   ar
    62   164   166   ar
    63   164   165   ar
    64   135   137    1
    65    22    19    1
    66   166   168   ar
    67   154   156   ar
    68    19    20    1
    69   165   167   ar
    70   157   158   ar
    71   183   184    2
    72   183   182    1
    73   181   182    1
    74   123   122    2
    75   188   187    1
    76   182   185    1
    77   168   169   ar
    78   185   186    1
    79   187   186    1
    80   156   158   ar
    81   167   169   ar
    82   122   121    1
    83    20    27   am
    84    20    21    2
    85    36    34   ar
    86    36    37   ar
    87    27    28    1
    88   113   112    2
    89    34    32   ar
    90   121   120    1
    91   121   124    1
    92   112   111    1
    93    37    35   ar
    94   114   115    1
    95   114   111    1
    96   124   125    1
    97    32    31    1
    98    32    33   ar
    99    28    31    1
   100    28    29    1
   101    30    29    2
   102   117   115   ar
   103   117   119   ar
   104   115   116   ar
   105   111   110    1
   106    29    38   am
   107    35    33   ar
   108   119   118   ar
   109    92    90    1
   110   116   118   ar
   111   125   126    1
   112   110   104   am
   113    77    75    1
   114    38    39    1
   115    96    95    2
   116   126   127    1
   117    76    74    1
   118    95    94    1
   119    39    40    1
   120    39    42    1
   121    90    89    1
   122    91    89    1
   123   105   104    2
   124    46    47    2
   125    46    45    1
   126   104   103    1
   127    41    40    2
   128    40    44   am
   129    75    74    1
   130    58    56   ar
   131    58    57   ar
   132    56    54   ar
   133    97    94    1
   134    97    98    1
   135    44    45    1
   136    43    42    1
   137    89    86    1
   138    74    71    1
   139   127   128    2
   140   129   128    1
   141   102   103    1
   142    94    93    1
   143    45    48    1
   144   103   106    1
   145    57    55   ar
   146   128   130    1
   147    54    55   ar
   148    54    53    1
   149    98    99    1
   150   100    99    2
   151    86    87    1
   152    86    85    1
   153    71    72    1
   154    71    70    1
   155   106   107    1
   156    73    72    2
   157    53    50    1
   158    88    87    2
   159    99   101   am
   160    85    80   am
   161    52    51    2
   162    51    50    1
   163    83    82    1
   164    70    61   am
   165    50    49    1
   166   107   108    2
   167   107   109   am
   168    80    81    2
   169    80    79    1
   170    82    79    1
   171    82    84    1
   172    61    62    2
   173    61    60    1
   174    79    78    1
   175    63    60    1
   176    63    64    1
   177    59    60    1
   178    65    64    1
   179    65    66    1
   180    68    67    1
   181    66    67    2
   182    67    69    1
