@<TRIPOS>MOLECULE
tmp/1x54A00.pdb
 238 226 0 0 0
SMALL
GASTEIGER

@<TRIPOS>ATOM
      1  N         -9.1510   15.7300   45.6600 N.3   167  VAL167     -0.1231
      2  CA        -8.5440   14.5380   46.2410 C.3   167  VAL167      0.1692
      3  C         -7.0390   14.6260   46.0680 C.2   167  VAL167      0.2591
      4  O         -6.2810   14.1860   46.9370 O.2   167  VAL167     -0.2718
      5  CB        -9.0330   13.2280   45.5380 C.3   167  VAL167      0.0266
      6  CG1       -8.5180   11.9900   46.2710 C.3   167  VAL167      0.0020
      7  CG2      -10.5330   13.1860   45.4530 C.3   167  VAL167      0.0020
      8  N         -6.6150   15.1830   44.9350 N.am  168  GLU168     -0.1979
      9  CA        -5.2080   15.1940   44.5740 C.3   168  GLU168      0.1602
     10  C         -4.6960   16.6080   44.2830 C.2   168  GLU168      0.2287
     11  O         -3.8700   16.8060   43.3850 O.2   168  GLU168     -0.2864
     12  CB        -4.9500   14.2450   43.3930 C.3   168  GLU168      0.0415
     13  CG        -5.3720   12.7960   43.6690 C.3   168  GLU168      0.1163
     14  CD        -4.5590   12.1070   44.7620 C.2   168  GLU168      0.3649
     15  OE1       -5.0960   11.1510   45.3750 O.co2 168  GLU168     -0.2457
     16  OE2       -3.3900   12.4880   45.0080 O.co2 168  GLU168     -0.2457
     17  N        -10.5830   11.6070   41.1410 N.3   188  SER188     -0.1217
     18  CA       -10.4340   10.2900   41.7530 C.3   188  SER188      0.1889
     19  C        -11.6850   10.0290   42.5830 C.2   188  SER188      0.2288
     20  O        -12.1770   10.9420   43.2630 O.2   188  SER188     -0.2866
     21  CB        -9.2090   10.2630   42.6720 C.3   188  SER188      0.2089
     22  OG        -9.2550    9.1500   43.5430 O.3   188  SER188     -0.2183
     23  N        -11.7830    8.1020   45.1360 N.3   190  GLN190     -0.1245
     24  CA       -11.3050    7.5290   46.3840 C.3   190  GLN190      0.1566
     25  C        -12.1560    7.8780   47.6070 C.2   190  GLN190      0.2260
     26  O        -12.4860    6.9960   48.4120 O.2   190  GLN190     -0.2867
     27  CB        -9.8720    7.9830   46.6520 C.3   190  GLN190      0.0367
     28  CG        -9.3610    7.4830   47.9920 C.3   190  GLN190      0.0905
     29  CD        -8.0230    8.0530   48.3520 C.2   190  GLN190      0.2608
     30  OE1       -7.1650    8.2280   47.4890 O.2   190  GLN190     -0.2717
     31  NE2       -7.8370    8.3430   49.6340 N.am  190  GLN190     -0.0878
     32  N        -15.3050    6.0070   47.6760 N.3   193  LEU193     -0.1245
     33  CA       -15.0470    4.5900   47.9680 C.3   193  LEU193      0.1561
     34  C        -14.8240    4.3830   49.4580 C.2   193  LEU193      0.2260
     35  O        -15.2780    3.4040   50.0330 O.2   193  LEU193     -0.2867
     36  CB       -13.8770    4.0420   47.1430 C.3   193  LEU193      0.0270
     37  CG       -14.0530    4.1080   45.6210 C.3   193  LEU193      0.0019
     38  CD1      -12.8760    3.3850   44.9740 C.3   193  LEU193      0.0001
     39  CD2      -15.3550    3.3970   45.1700 C.3   193  LEU193      0.0001
     40  N         -7.9710   15.6850   35.1450 N.3   211  ARG211     -0.1245
     41  CA        -6.8220   16.3910   35.7040 C.3   211  ARG211      0.1563
     42  C         -6.4810   17.5640   34.8060 C.2   211  ARG211      0.2260
     43  O         -6.1260   17.3710   33.6440 O.2   211  ARG211     -0.2867
     44  CB        -5.6160   15.4570   35.8160 C.3   211  ARG211      0.0307
     45  CG        -5.8510   14.1730   36.6430 C.3   211  ARG211      0.0489
     46  CD        -6.0010   14.4130   38.1330 C.3   211  ARG211      0.2205
     47  NE        -6.2400   13.1560   38.8450 N.pl3 211  ARG211     -0.0865
     48  CZ        -5.3350   12.4840   39.5460 C.cat 211  ARG211      0.5346
     49  NH1       -5.6840   11.3360   40.1280 N.pl3 211  ARG211      0.1354
     50  NH2       -4.0890   12.9470   39.6770 N.pl3 211  ARG211      0.1354
     51  N         -4.0840   19.2650   33.9870 N.3   213  GLU213     -0.1245
     52  CA        -2.6320   19.2300   34.0000 C.3   213  GLU213      0.1567
     53  C         -2.1600   19.9790   32.7710 C.2   213  GLU213      0.2260
     54  O         -2.4250   19.5570   31.6470 O.2   213  GLU213     -0.2867
     55  CB        -2.1370   17.7690   33.9910 C.3   213  GLU213      0.0388
     56  CG        -0.6210   17.5940   33.9230 C.3   213  GLU213      0.1160
     57  CD         0.1010   18.2000   35.1160 C.2   213  GLU213      0.3649
     58  OE1       -0.1810   17.7890   36.2610 O.co2 213  GLU213     -0.2457
     59  OE2        0.9520   19.0900   34.9060 O.co2 213  GLU213     -0.2457
     60  N          3.0250   11.0470   29.3250 N.3   219  ARG219     -0.1231
     61  CA         2.3930   10.2000   30.3540 C.3   219  ARG219      0.1694
     62  C          1.1390   10.8190   30.9930 C.2   219  ARG219      0.2592
     63  O          0.5560   10.2470   31.9200 O.2   219  ARG219     -0.2718
     64  CB         3.4020    9.8010   31.4570 C.3   219  ARG219      0.0321
     65  CG         3.9790   10.9730   32.2640 C.3   219  ARG219      0.0489
     66  CD         4.1940   10.6810   33.7710 C.3   219  ARG219      0.2205
     67  NE         5.1810    9.6270   34.0250 N.pl3 219  ARG219     -0.0865
     68  CZ         5.5550    9.1980   35.2340 C.cat 219  ARG219      0.5346
     69  NH1        6.4670    8.2430   35.3330 N.pl3 219  ARG219      0.1354
     70  NH2        5.0400    9.7170   36.3450 N.pl3 219  ARG219      0.1354
     71  N          0.7180   11.9850   30.5060 N.am  220  HIS220     -0.1962
     72  CA        -0.4360   12.6680   31.0870 C.3   220  HIS220      0.1787
     73  C         -1.5460   12.8900   30.0780 C.2   220  HIS220      0.2620
     74  O         -1.2950   13.3080   28.9470 O.2   220  HIS220     -0.2715
     75  CB        -0.0190   14.0170   31.6820 C.3   220  HIS220      0.0785
     76  CG         0.7850   13.8910   32.9390 C.ar  220  HIS220      0.0821
     77  ND1        2.1590   13.9900   32.9560 N.ar  220  HIS220     -0.2267
     78  CD2        0.4080   13.6480   34.2180 C.ar  220  HIS220      0.1154
     79  CE1        2.5950   13.8270   34.1940 C.ar  220  HIS220      0.1986
     80  NE2        1.5530   13.6220   34.9800 N.ar  220  HIS220     -0.2212
     81  N         -2.7680   12.5780   30.5010 N.am  221  LEU221     -0.1977
     82  CA        -3.9760   12.9660   29.7880 C.3   221  LEU221      0.1596
     83  C         -4.7460   13.8930   30.7050 C.2   221  LEU221      0.2287
     84  O         -4.4750   13.9210   31.9100 O.2   221  LEU221     -0.2864
     85  CB        -4.8240   11.7240   29.4870 C.3   221  LEU221      0.0297
     86  CG        -4.1900   10.7080   28.5320 C.3   221  LEU221      0.0022
     87  CD1       -5.0140    9.4030   28.5090 C.3   221  LEU221      0.0001
     88  CD2       -4.0280   11.3080   27.1220 C.3   221  LEU221      0.0001
     89  N         -8.7570   10.4670   31.9990 N.3   224  PHE224     -0.1241
     90  CA        -8.2360    9.1000   31.9000 C.3   224  PHE224      0.1605
     91  C         -9.1430    8.1390   32.6610 C.2   224  PHE224      0.2264
     92  O         -9.9590    8.5820   33.4830 O.2   224  PHE224     -0.2867
     93  CB        -6.7770    9.0150   32.3970 C.3   224  PHE224      0.0534
     94  CG        -6.6170    9.1690   33.8830 C.ar  224  PHE224     -0.0203
     95  CD1       -6.5490    8.0240   34.6980 C.ar  224  PHE224     -0.0042
     96  CD2       -6.4920   10.4340   34.4740 C.ar  224  PHE224     -0.0042
     97  CE1       -6.3860    8.1480   36.0830 C.ar  224  PHE224     -0.0003
     98  CE2       -6.3370   10.5540   35.8680 C.ar  224  PHE224     -0.0003
     99  CZ        -6.2800    9.4090   36.6600 C.ar  224  PHE224     -0.0000
    100  N         -9.7340    5.2690   35.3940 N.3   226  HIS226     -0.1241
    101  CA        -9.1140    5.1330   36.6860 C.3   226  HIS226      0.1621
    102  C         -9.7940    3.9560   37.4070 C.2   226  HIS226      0.2264
    103  O        -10.9840    4.0250   37.7090 O.2   226  HIS226     -0.2867
    104  CB        -9.3720    6.4380   37.4380 C.3   226  HIS226      0.0745
    105  CG        -8.4420    6.6900   38.5820 C.ar  226  HIS226      0.0817
    106  ND1       -8.4750    7.8680   39.2910 N.ar  226  HIS226     -0.2268
    107  CD2       -7.4520    5.9390   39.1410 C.ar  226  HIS226      0.1154
    108  CE1       -7.5510    7.8350   40.2400 C.ar  226  HIS226      0.1986
    109  NE2       -6.9190    6.6780   40.1760 N.ar  226  HIS226     -0.2212
    110  N        -10.1210    1.9050   40.6480 N.3   228  GLU228     -0.1231
    111  CA        -9.7960    2.1930   42.0370 C.3   228  GLU228      0.1699
    112  C        -10.4110    1.1640   42.9540 C.2   228  GLU228      0.2592
    113  O        -11.5460    0.7610   42.7490 O.2   228  GLU228     -0.2718
    114  CB       -10.2850    3.6030   42.4090 C.3   228  GLU228      0.0402
    115  CG        -9.6330    4.6790   41.5410 C.3   228  GLU228      0.1161
    116  CD       -10.0700    6.0870   41.8960 C.2   228  GLU228      0.3649
    117  OE1       -9.3960    6.7250   42.7420 O.co2 228  GLU228     -0.2457
    118  OE2      -11.0760    6.5590   41.3220 O.co2 228  GLU228     -0.2457
    119  N         -9.6520    0.7670   43.9700 N.am  229  LEU229     -0.1966
    120  CA       -10.0940   -0.2030   44.9830 C.3   229  LEU229      0.1728
    121  C         -9.9250    0.4240   46.3560 C.2   229  LEU229      0.2616
    122  O         -8.9680    1.1890   46.5900 O.2   229  LEU229     -0.2715
    123  CB        -9.2340   -1.4760   44.9440 C.3   229  LEU229      0.0311
    124  CG        -9.5720   -2.5490   43.9050 C.3   229  LEU229      0.0022
    125  CD1       -9.3560   -2.0980   42.4540 C.3   229  LEU229      0.0001
    126  CD2       -8.7590   -3.8260   44.2150 C.3   229  LEU229      0.0001
    127  N        -10.8150    0.0610   47.2780 N.am  230  GLU230     -0.1977
    128  CA       -10.6700    0.4820   48.6830 C.3   230  GLU230      0.1602
    129  C        -11.1820   -0.6520   49.5570 C.2   230  GLU230      0.2287
    130  O        -12.1840   -1.2850   49.2200 O.2   230  GLU230     -0.2864
    131  CB       -11.4830    1.7670   48.9300 C.3   230  GLU230      0.0415
    132  CG       -11.1460    2.4960   50.2310 C.3   230  GLU230      0.1163
    133  CD        -9.8890    3.3300   50.1490 C.2   230  GLU230      0.3649
    134  OE1       -9.5110    3.7680   49.0390 O.co2 230  GLU230     -0.2457
    135  OE2       -9.3050    3.5810   51.2180 O.co2 230  GLU230     -0.2457
    136  N         -4.5670   12.8200   52.8740 N.3   333  TYR333     -0.1241
    137  CA        -5.3400   11.7360   53.4900 C.3   333  TYR333      0.1605
    138  C         -4.5060   10.5430   53.9400 C.2   333  TYR333      0.2264
    139  O         -5.0520    9.5690   54.4620 O.2   333  TYR333     -0.2867
    140  CB        -6.4230   11.2580   52.5010 C.3   333  TYR333      0.0534
    141  CG        -5.8610   10.8920   51.1290 C.ar  333  TYR333     -0.0201
    142  CD1       -5.0800    9.7500   50.9680 C.ar  333  TYR333     -0.0009
    143  CD2       -6.1120   11.6870   49.9980 C.ar  333  TYR333     -0.0009
    144  CE1       -4.5630    9.3870   49.7380 C.ar  333  TYR333      0.0417
    145  CE2       -5.5900   11.3370   48.7560 C.ar  333  TYR333      0.0417
    146  CZ        -4.8060   10.1960   48.6300 C.ar  333  TYR333      0.1957
    147  OH        -4.2740    9.8400   47.4060 O.3   333  TYR333     -0.2866
    148  N          5.1970    5.2620   37.0360 N.3   357  GLU357     -0.1231
    149  CA         4.0200    4.9890   37.8750 C.3   357  GLU357      0.1699
    150  C          2.7700    4.5190   37.1170 C.2   357  GLU357      0.2592
    151  O          2.2620    5.2220   36.2380 O.2   357  GLU357     -0.2718
    152  CB         3.6720    6.2130   38.7050 C.3   357  GLU357      0.0402
    153  CG         2.5250    5.9780   39.6780 C.3   357  GLU357      0.1161
    154  CD         2.2470    7.1690   40.5480 C.2   357  GLU357      0.3649
    155  OE1        1.0590    7.4560   40.8110 O.co2 357  GLU357     -0.2457
    156  OE2        3.2320    7.8240   40.9750 O.co2 357  GLU357     -0.2457
    157  N          2.2600    3.3460   37.5000 N.am  358  ILE358     -0.1966
    158  CA         0.9470    2.8870   37.0310 C.3   358  ILE358      0.1727
    159  C         -0.1130    2.8350   38.1260 C.2   358  ILE358      0.2616
    160  O         -1.3070    2.9200   37.8180 O.2   358  ILE358     -0.2715
    161  CB         1.0490    1.5480   36.3140 C.3   358  ILE358      0.0290
    162  CG1        1.6860    0.4900   37.2050 C.3   358  ILE358      0.0022
    163  CG2        1.8170    1.7060   34.9760 C.3   358  ILE358      0.0023
    164  CD1        1.5080   -0.9070   36.6430 C.3   358  ILE358      0.0001
    165  N          0.3170    2.7180   39.3900 N.am  359  ILE359     -0.1963
    166  CA        -0.6060    2.7600   40.5420 C.3   359  ILE359      0.1727
    167  C         -0.0710    3.6930   41.6130 C.2   359  ILE359      0.2617
    168  O          1.1270    3.6680   41.9280 O.2   359  ILE359     -0.2715
    169  CB        -0.7900    1.3600   41.1800 C.3   359  ILE359      0.0290
    170  CG1       -1.5130    0.4180   40.2090 C.3   359  ILE359      0.0022
    171  CG2       -1.5700    1.4540   42.5520 C.3   359  ILE359      0.0023
    172  CD1       -1.6740   -0.9930   40.7330 C.3   359  ILE359      0.0001
    173  N         -0.9700    4.4930   42.1810 N.am  360  GLY360     -0.1940
    174  CA        -0.7010    5.2350   43.4180 C.3   360  GLY360      0.2014
    175  C         -1.6880    4.7690   44.4720 C.2   360  GLY360      0.2639
    176  O         -2.8910    4.7410   44.2150 O.2   360  GLY360     -0.2714
    177  N         -1.1850    4.3900   45.6470 N.am  361  GLY361     -0.1954
    178  CA        -2.0670    3.9680   46.7350 C.3   361  GLY361      0.1869
    179  C         -1.5150    4.3170   48.1080 C.2   361  GLY361      0.2309
    180  O         -0.3680    4.7920   48.2490 O.2   361  GLY361     -0.2863
    181  N         -4.9700    4.8190   54.6530 N.3   364  ARG364     -0.1245
    182  CA        -5.6240    6.1090   54.8830 C.3   364  ARG364      0.1563
    183  C         -5.5620    6.4870   56.3560 C.2   364  ARG364      0.2260
    184  O         -5.6070    5.6240   57.2470 O.2   364  ARG364     -0.2867
    185  CB        -7.1000    6.0490   54.4640 C.3   364  ARG364      0.0307
    186  CG        -7.3710    5.3600   53.1290 C.3   364  ARG364      0.0489
    187  CD        -6.4830    5.7760   52.0010 C.3   364  ARG364      0.2205
    188  NE        -6.9750    5.2230   50.7490 N.pl3 364  ARG364     -0.0865
    189  CZ        -6.3950    5.4080   49.5790 C.cat 364  ARG364      0.5346
    190  NH1       -6.9460    4.9140   48.4820 N.pl3 364  ARG364      0.1354
    191  NH2       -5.2420    6.0660   49.4930 N.pl3 364  ARG364      0.1354
    192  N         -6.1430    2.1750   46.4380 N.3   402  PHE402     -0.1227
    193  CA        -5.2450    2.5800   45.3780 C.3   402  PHE402      0.1736
    194  C         -6.0060    2.8600   44.0980 C.2   402  PHE402      0.2596
    195  O         -7.1660    2.4440   43.9320 O.2   402  PHE402     -0.2718
    196  CB        -4.1750    1.5150   45.0930 C.3   402  PHE402      0.0547
    197  CG        -4.7050    0.2380   44.5040 C.ar  402  PHE402     -0.0202
    198  CD1       -4.7650    0.0660   43.1150 C.ar  402  PHE402     -0.0042
    199  CD2       -5.0960   -0.8120   45.3390 C.ar  402  PHE402     -0.0042
    200  CE1       -5.2180   -1.1310   42.5730 C.ar  402  PHE402     -0.0003
    201  CE2       -5.5390   -2.0240   44.8130 C.ar  402  PHE402     -0.0003
    202  CZ        -5.6050   -2.1780   43.4180 C.ar  402  PHE402     -0.0000
    203  N         -5.3290    3.5450   43.1820 N.am  403  GLY403     -0.1957
    204  CA        -5.8670    3.8070   41.8540 C.3   403  GLY403      0.1869
    205  C         -4.8540    3.4190   40.7960 C.2   403  GLY403      0.2309
    206  O         -3.6700    3.7610   40.9120 O.2   403  GLY403     -0.2863
    207  N         -4.0140    3.7080   36.6820 N.3   405  GLY405     -0.1225
    208  CA        -4.2530    4.4150   35.4360 C.3   405  GLY405      0.1811
    209  C         -4.3190    3.4210   34.2890 C.2   405  GLY405      0.2280
    210  O         -3.2990    2.8020   33.9270 O.2   405  GLY405     -0.2866
    211  N         -4.8010    3.7590   31.0270 N.3   407  GLU407     -0.1231
    212  CA        -4.0060    4.1260   29.8580 C.3   407  GLU407      0.1699
    213  C         -2.5220    3.9700   30.1390 C.2   407  GLU407      0.2592
    214  O         -1.7790    3.5370   29.2550 O.2   407  GLU407     -0.2718
    215  CB        -4.3240    5.5480   29.3640 C.3   407  GLU407      0.0402
    216  CG        -5.7410    5.6750   28.8200 C.3   407  GLU407      0.1161
    217  CD        -6.8020    5.7210   29.8950 C.2   407  GLU407      0.3649
    218  OE1       -6.4810    6.0080   31.0680 O.co2 407  GLU407     -0.2457
    219  OE2       -7.9730    5.4970   29.5420 O.co2 407  GLU407     -0.2457
    220  N         -2.0920    4.3080   31.3560 N.am  408  ARG408     -0.1980
    221  CA        -0.6760    4.0920   31.7200 C.3   408  ARG408      0.1597
    222  C         -0.3200    2.6250   31.6130 C.2   408  ARG408      0.2287
    223  O          0.7510    2.2700   31.1280 O.2   408  ARG408     -0.2864
    224  CB        -0.3900    4.5920   33.1350 C.3   408  ARG408      0.0334
    225  CG        -0.4300    6.1000   33.2880 C.3   408  ARG408      0.0492
    226  CD         0.9380    6.7950   33.3030 C.3   408  ARG408      0.2205
    227  NE         0.8340    8.2130   33.6490 N.pl3 408  ARG408     -0.0865
    228  CZ         1.1080    8.7740   34.8350 C.cat 408  ARG408      0.5346
    229  NH1        1.5410    8.0690   35.8800 N.pl3 408  ARG408      0.1354
    230  NH2        0.9640   10.0860   34.9710 N.pl3 408  ARG408      0.1354
    231  N          1.0120    8.0910   25.8450 N.3   419  ILE419     -0.1245
    232  CA        -0.1860    7.5810   26.4870 C.3   419  ILE419      0.1561
    233  C         -1.4610    7.8680   25.6720 C.2   419  ILE419      0.2260
    234  O         -2.4580    7.1290   25.7490 O.2   419  ILE419     -0.2867
    235  CB        -0.2660    8.1650   27.9080 C.3   419  ILE419      0.0252
    236  CG1       -1.2820    7.3940   28.7350 C.3   419  ILE419      0.0019
    237  CG2       -0.5220    9.6880   27.9000 C.3   419  ILE419      0.0019
    238  CD1       -1.3630    7.8780   30.1840 C.3   419  ILE419      0.0001
@<TRIPOS>BOND
     1   233   234    2
     2   233   232    1
     3   231   232    1
     4   232   235    1
     5    88    86    1
     6   237   235    1
     7   235   236    1
     8    87    86    1
     9    86    85    1
    10   236   238    1
    11   216   215    1
    12   216   217    1
    13    74    73    2
    14   214   213    2
    15    60    61    1
    16   215   212    1
    17    85    82    1
    18   219   217   ar
    19    82    81    1
    20    82    83    1
    21   212   213    1
    22   212   211    1
    23   217   218   ar
    24    73    81   am
    25    73    72    1
    26   213   220   am
    27    61    62    1
    28    61    64    1
    29    71    62   am
    30    71    72    1
    31    83    84    2
    32    62    63    2
    33    72    75    1
    34   223   222    2
    35   220   221    1
    36    64    65    1
    37   222   221    1
    38    54    53    2
    39    75    76    1
    40   221   224    1
    41    90    89    1
    42    90    93    1
    43    90    91    1
    44    65    66    1
    45    93    94    1
    46    91    92    2
    47    53    52    1
    48    76    77   ar
    49    76    78   ar
    50    77    79   ar
    51   224   225    1
    52   225   226    1
    53   226   227    1
    54    43    42    2
    55   227   228    2
    56    66    67    1
    57    94    96   ar
    58    94    95   ar
    59    56    55    1
    60    56    57    1
    61   210   209    2
    62    51    52    1
    63    55    52    1
    64    67    68    2
    65    79    80   ar
    66    78    80   ar
    67   209   208    1
    68    96    98   ar
    69    95    97   ar
    70    42    41    1
    71   228   230    1
    72   228   229    1
    73    59    57   ar
    74   163   161    1
    75    57    58   ar
    76    40    41    1
    77    68    69    1
    78    68    70    1
    79   100   101    1
    80   208   207    1
    81    41    44    1
    82    44    45    1
    83    98    99   ar
    84    97    99   ar
    85   151   150    2
    86   161   158    1
    87   161   162    1
    88   164   162    1
    89    45    46    1
    90   101   102    1
    91   101   104    1
    92   158   157    1
    93   158   159    1
    94   148   149    1
    95   150   157   am
    96   150   149    1
    97   102   103    2
    98   104   105    1
    99   160   159    2
   100   149   152    1
   101   159   165   am
   102    46    47    1
   103   105   107   ar
   104   105   106   ar
   105   152   153    1
   106    47    48    2
   107   107   109   ar
   108   106   108   ar
   109   165   166    1
   110    48    50    1
   111    48    49    1
   112   153   154    1
   113   109   108   ar
   114   170   172    1
   115   170   169    1
   116   166   169    1
   117   166   167    1
   118   154   155   ar
   119   154   156   ar
   120   110   111    1
   121   205   206    2
   122   205   204    1
   123    17    18    1
   124   169   171    1
   125   118   116   ar
   126   115   116    1
   127   115   114    1
   128   167   168    2
   129   167   173   am
   130    18    19    1
   131    18    21    1
   132   204   203    1
   133   116   117   ar
   134   111   114    1
   135   111   112    1
   136   173   174    1
   137   125   124    1
   138   200   198   ar
   139   200   202   ar
   140    19    20    2
   141    21    22    1
   142   113   112    2
   143   112   119   am
   144   198   197   ar
   145   203   194   am
   146    11    10    2
   147    12    13    1
   148    12     9    1
   149   202   201   ar
   150   174   175    1
   151    13    14    1
   152   124   126    1
   153   124   123    1
   154   195   194    2
   155   119   120    1
   156   194   193    1
   157   176   175    2
   158    10     9    1
   159   175   177   am
   160   197   196    1
   161   197   199   ar
   162     9     8    1
   163    14    16   ar
   164    14    15   ar
   165   201   199   ar
   166     8     3   am
   167   123   120    1
   168    38    37    1
   169   120   121    1
   170   196   193    1
   171    23    24    1
   172    39    37    1
   173   193   192    1
   174     7     5    1
   175     5     2    1
   176     5     6    1
   177    37    36    1
   178   177   178    1
   179     1     2    1
   180     3     2    1
   181     3     4    2
   182   121   122    2
   183   121   127   am
   184    24    27    1
   185    24    25    1
   186    27    28    1
   187   178   179    1
   188    36    33    1
   189   127   128    1
   190   147   146    1
   191    30    29    2
   192    25    26    2
   193    32    33    1
   194    33    34    1
   195    28    29    1
   196   179   180    2
   197    29    31   am
   198   190   189    1
   199   146   145   ar
   200   146   144   ar
   201   128   131    1
   202   128   129    1
   203   145   143   ar
   204   131   132    1
   205   134   133   ar
   206   130   129    2
   207    34    35    2
   208   191   189    1
   209   189   188    2
   210   144   142   ar
   211   143   141   ar
   212   133   132    1
   213   133   135   ar
   214   188   187    1
   215   142   141   ar
   216   141   140    1
   217   187   186    1
   218   140   137    1
   219   136   137    1
   220   186   185    1
   221   137   138    1
   222   138   139    2
   223   185   182    1
   224   181   182    1
   225   182   183    1
   226   183   184    2
