@<TRIPOS>MOLECULE
tmp/1x6nA00.pdb
 250 242 0 0 0
SMALL
GASTEIGER

@<TRIPOS>ATOM
      1  N        -11.0330   27.1920   75.0500 N.3   140  TYR140     -0.1241
      2  CA       -10.7150   27.1230   73.6390 C.3   140  TYR140      0.1605
      3  C         -9.3320   26.5230   73.3900 C.2   140  TYR140      0.2264
      4  O         -8.3580   26.8700   74.0580 O.2   140  TYR140     -0.2867
      5  CB       -10.7690   28.5260   73.0200 C.3   140  TYR140      0.0534
      6  CG       -12.1730   29.0500   72.7630 C.ar  140  TYR140     -0.0201
      7  CD1      -12.9930   29.4740   73.8110 C.ar  140  TYR140     -0.0009
      8  CD2      -12.6860   29.1000   71.4670 C.ar  140  TYR140     -0.0009
      9  CE1      -14.2870   29.9370   73.5680 C.ar  140  TYR140      0.0417
     10  CE2      -13.9810   29.5570   71.2140 C.ar  140  TYR140      0.0417
     11  CZ       -14.7740   29.9770   72.2660 C.ar  140  TYR140      0.1957
     12  OH       -16.0440   30.4570   72.0090 O.3   140  TYR140     -0.2866
     13  N         -3.4380   26.1510   65.6810 N.3   144  ALA144     -0.1245
     14  CA        -2.0400   26.4640   65.4210 C.3   144  ALA144      0.1562
     15  C         -1.1070   26.3000   66.6200 C.2   144  ALA144      0.2260
     16  O          0.0940   26.5470   66.5060 O.2   144  ALA144     -0.2867
     17  CB        -1.9330   27.8820   64.8810 C.3   144  ALA144      0.0290
     18  N          4.0710   26.2440   70.1450 N.3   149  ARG149     -0.1245
     19  CA         3.5230   26.1820   71.4990 C.3   149  ARG149      0.1563
     20  C          3.5150   24.7300   71.9720 C.2   149  ARG149      0.2260
     21  O          3.3730   24.4510   73.1660 O.2   149  ARG149     -0.2867
     22  CB         2.0970   26.7310   71.5270 C.3   149  ARG149      0.0307
     23  CG         1.9570   28.2360   71.2870 C.3   149  ARG149      0.0489
     24  CD         0.4770   28.6000   71.3450 C.3   149  ARG149      0.2205
     25  NE         0.2000   30.0320   71.3880 N.pl3 149  ARG149     -0.0865
     26  CZ         0.4200   30.8730   70.3830 C.cat 149  ARG149      0.5346
     27  NH1        0.9330   30.4300   69.2430 N.pl3 149  ARG149      0.1354
     28  NH2        0.1080   32.1540   70.5120 N.pl3 149  ARG149      0.1354
     29  N        -10.0880   26.1470   67.9870 N.3   167  GLY167     -0.1210
     30  CA        -9.4050   27.3270   67.4840 C.3   167  GLY167      0.1956
     31  C         -9.5470   27.8620   66.0780 C.2   167  GLY167      0.2611
     32  O         -8.5850   27.9640   65.3340 O.2   167  GLY167     -0.2717
     33  N        -10.7740   28.2090   65.7310 N.am  168  PHE168     -0.1976
     34  CA       -11.1250   28.8260   64.4630 C.3   168  PHE168      0.1639
     35  C        -11.1290   28.1500   63.1150 C.2   168  PHE168      0.2290
     36  O        -10.1040   27.8410   62.5020 O.2   168  PHE168     -0.2864
     37  CB       -10.3910   30.1600   64.3490 C.3   168  PHE168      0.0560
     38  CG       -10.5930   31.0360   65.5420 C.ar  168  PHE168     -0.0200
     39  CD1      -11.8430   31.0840   66.1750 C.ar  168  PHE168     -0.0042
     40  CD2       -9.5460   31.7790   66.0650 C.ar  168  PHE168     -0.0042
     41  CE1      -12.0410   31.8580   67.3170 C.ar  168  PHE168     -0.0003
     42  CE2       -9.7300   32.5620   67.2090 C.ar  168  PHE168     -0.0003
     43  CZ       -10.9770   32.6020   67.8380 C.ar  168  PHE168     -0.0000
     44  N         -6.4880   38.9410   57.5090 N.3   181  LEU181     -0.1245
     45  CA        -5.5320   37.8450   57.6550 C.3   181  LEU181      0.1561
     46  C         -4.1360   38.1960   57.1490 C.2   181  LEU181      0.2260
     47  O         -3.1420   37.6300   57.6070 O.2   181  LEU181     -0.2867
     48  CB        -6.0020   36.6080   56.8910 C.3   181  LEU181      0.0270
     49  CG        -6.6360   35.4370   57.6350 C.3   181  LEU181      0.0019
     50  CD1       -6.8020   34.2850   56.6430 C.3   181  LEU181      0.0001
     51  CD2       -5.7630   35.0070   58.8130 C.3   181  LEU181      0.0001
     52  N         -0.9560   38.5730   59.2320 N.3   184  ILE184     -0.1245
     53  CA        -0.2340   37.4270   59.7660 C.3   184  ILE184      0.1561
     54  C          0.5760   36.7750   58.6540 C.2   184  ILE184      0.2260
     55  O          0.0270   36.3430   57.6430 O.2   184  ILE184     -0.2867
     56  CB        -1.1960   36.3740   60.3470 C.3   184  ILE184      0.0252
     57  CG1       -2.1900   37.0430   61.2980 C.3   184  ILE184      0.0019
     58  CG2       -0.4030   35.2910   61.0610 C.3   184  ILE184      0.0019
     59  CD1       -1.5400   37.8440   62.4030 C.3   184  ILE184      0.0001
     60  N         -0.3950   33.6460   56.4930 N.3   187  SER187     -0.1217
     61  CA        -1.7070   33.1410   56.8960 C.3   187  SER187      0.1889
     62  C         -2.7750   33.2550   55.8050 C.2   187  SER187      0.2288
     63  O         -3.5170   32.3110   55.5540 O.2   187  SER187     -0.2866
     64  CB        -2.1700   33.8640   58.1660 C.3   187  SER187      0.2089
     65  OG        -3.2730   33.1960   58.7460 O.3   187  SER187     -0.2183
     66  N         -8.3630   25.8820   58.1060 N.3   206  HIS206     -0.1241
     67  CA        -7.2310   26.7430   57.8160 C.3   206  HIS206      0.1621
     68  C         -5.9230   25.9810   57.5800 C.2   206  HIS206      0.2264
     69  O         -5.1850   26.2810   56.6400 O.2   206  HIS206     -0.2867
     70  CB        -7.0540   27.7670   58.9450 C.3   206  HIS206      0.0745
     71  CG        -6.3330   29.0110   58.5240 C.ar  206  HIS206      0.0817
     72  ND1       -6.2780   30.1430   59.3080 N.ar  206  HIS206     -0.2268
     73  CD2       -5.6330   29.2990   57.4000 C.ar  206  HIS206      0.1154
     74  CE1       -5.5750   31.0730   58.6880 C.ar  206  HIS206      0.1986
     75  NE2       -5.1730   30.5850   57.5270 N.ar  206  HIS206     -0.2212
     76  N        -14.5460   32.0860   63.0370 N.3   250  GLY250     -0.1210
     77  CA       -14.2340   33.4990   63.1680 C.3   250  GLY250      0.1956
     78  C        -12.9750   33.8460   63.9410 C.2   250  GLY250      0.2612
     79  O        -11.8820   33.3200   63.6770 O.2   250  GLY250     -0.2717
     80  N        -13.1360   34.7280   64.9230 N.am  251  GLY251     -0.1942
     81  CA       -11.9990   35.1710   65.7040 C.3   251  GLY251      0.2014
     82  C        -11.5770   36.5250   65.1640 C.2   251  GLY251      0.2639
     83  O        -12.0830   36.9810   64.1340 O.2   251  GLY251     -0.2714
     84  N        -10.6270   37.1580   65.8410 N.am  252  TRP252     -0.1959
     85  CA       -10.1540   38.4800   65.4570 C.3   252  TRP252      0.1771
     86  C         -9.7350   38.6450   63.9980 C.2   252  TRP252      0.2620
     87  O        -10.0960   39.6360   63.3550 O.2   252  TRP252     -0.2715
     88  CB        -9.0010   38.8910   66.3760 C.3   252  TRP252      0.0590
     89  CG        -8.5130   40.2830   66.1580 C.ar  252  TRP252      0.0006
     90  CD1       -7.3810   40.6620   65.4880 C.ar  252  TRP252      0.0946
     91  CD2       -9.1420   41.4910   66.6010 C.ar  252  TRP252      0.0152
     92  NE1       -7.2680   42.0280   65.4900 N.ar  252  TRP252     -0.2442
     93  CE2       -8.3350   42.5640   66.1650 C.ar  252  TRP252      0.0810
     94  CE3      -10.3090   41.7710   67.3230 C.ar  252  TRP252      0.0012
     95  CZ2       -8.6580   43.9020   66.4280 C.ar  252  TRP252      0.0191
     96  CZ3      -10.6320   43.1010   67.5850 C.ar  252  TRP252      0.0001
     97  CH2       -9.8060   44.1510   67.1360 C.ar  252  TRP252      0.0015
     98  N         -8.9950   37.6720   63.4730 N.am  253  THR253     -0.1937
     99  CA        -8.4920   37.7490   62.1080 C.3   253  THR253      0.2028
    100  C         -9.3220   37.0820   61.0120 C.2   253  THR253      0.2642
    101  O         -9.0120   37.2380   59.8310 O.2   253  THR253     -0.2714
    102  CB        -7.0780   37.1490   62.0290 C.3   253  THR253      0.1808
    103  OG1       -7.1260   35.7830   62.4640 O.3   253  THR253     -0.2208
    104  CG2       -6.1120   37.9270   62.9200 C.3   253  THR253      0.0379
    105  N        -10.3690   36.3540   61.3850 N.am  254  LEU254     -0.1977
    106  CA       -11.1840   35.6480   60.3990 C.3   254  LEU254      0.1596
    107  C        -12.6570   36.0570   60.4160 C.2   254  LEU254      0.2287
    108  O        -13.5270   35.2980   59.9750 O.2   254  LEU254     -0.2864
    109  CB       -11.0580   34.1350   60.6340 C.3   254  LEU254      0.0297
    110  CG        -9.6670   33.5390   60.3870 C.3   254  LEU254      0.0022
    111  CD1       -9.5460   32.1470   61.0210 C.3   254  LEU254      0.0001
    112  CD2       -9.4210   33.4800   58.8760 C.3   254  LEU254      0.0001
    113  N        -17.9940   33.3010   66.2840 N.3   290  ASP290     -0.1239
    114  CA       -17.1470   34.3370   66.8610 C.3   290  ASP290      0.1674
    115  C        -16.9270   35.4700   65.8560 C.2   290  ASP290      0.2266
    116  O        -15.8240   35.6510   65.3190 O.2   290  ASP290     -0.2867
    117  CB       -15.8050   33.7210   67.3020 C.3   290  ASP290      0.1410
    118  CG       -14.8650   34.7340   67.9170 C.2   290  ASP290      0.3668
    119  OD1      -15.3280   35.8120   68.3530 O.co2 290  ASP290     -0.2456
    120  OD2      -13.6540   34.4390   67.9790 O.co2 290  ASP290     -0.2456
    121  N        -16.1690   38.9000   65.1320 N.3   292  GLU292     -0.1245
    122  CA       -15.6060   39.9610   65.9190 C.3   292  GLU292      0.1567
    123  C        -16.0440   41.3060   65.4800 C.2   292  GLU292      0.2260
    124  O        -15.4610   41.9960   64.6380 O.2   292  GLU292     -0.2867
    125  CB       -14.0910   39.7890   66.0830 C.3   292  GLU292      0.0388
    126  CG       -13.8160   38.3640   66.6190 C.3   292  GLU292      0.1160
    127  CD       -13.1700   38.3030   68.0040 C.2   292  GLU292      0.3649
    128  OE1      -12.3890   39.2050   68.3380 O.co2 292  GLU292     -0.2457
    129  OE2      -13.4150   37.3190   68.7550 O.co2 292  GLU292     -0.2457
    130  N        -19.3820   33.7480   70.8370 N.3   339  ALA339     -0.1245
    131  CA       -18.4730   34.4790   71.7080 C.3   339  ALA339      0.1562
    132  C        -18.7190   35.9330   71.3150 C.2   339  ALA339      0.2260
    133  O        -18.6670   36.2810   70.1290 O.2   339  ALA339     -0.2867
    134  CB       -17.0140   34.0810   71.4250 C.3   339  ALA339      0.0290
    135  N        -16.9330   37.6100   76.2980 N.3   365  MET365     -0.1245
    136  CA       -15.4930   37.8330   76.3270 C.3   365  MET365      0.1570
    137  C        -15.1060   38.9580   77.2840 C.2   365  MET365      0.2261
    138  O        -14.7020   40.0430   76.8760 O.2   365  MET365     -0.2867
    139  CB       -14.9740   38.0970   74.9090 C.3   365  MET365      0.0387
    140  CG       -15.2290   36.9070   73.9780 C.3   365  MET365      0.0595
    141  SD       -14.3310   36.9560   72.4300 S.3   365  MET365     -0.1393
    142  CE       -15.4150   37.9770   71.4560 C.3   365  MET365      0.0692
    143  N        -12.6900   40.1480   78.8570 N.3   367  TYR367     -0.1227
    144  CA       -11.2550   40.3620   78.9390 C.3   367  TYR367      0.1736
    145  C        -10.8370   41.2940   77.8050 C.2   367  TYR367      0.2595
    146  O        -11.6790   41.7260   77.0240 O.2   367  TYR367     -0.2718
    147  CB       -10.4880   39.0330   78.8990 C.3   367  TYR367      0.0548
    148  CG       -11.0880   37.9470   78.0380 C.ar  367  TYR367     -0.0200
    149  CD1      -11.1730   38.0880   76.6540 C.ar  367  TYR367     -0.0009
    150  CD2      -11.5230   36.7500   78.6090 C.ar  367  TYR367     -0.0009
    151  CE1      -11.6730   37.0590   75.8580 C.ar  367  TYR367      0.0417
    152  CE2      -12.0210   35.7170   77.8240 C.ar  367  TYR367      0.0417
    153  CZ       -12.0940   35.8770   76.4510 C.ar  367  TYR367      0.1957
    154  OH       -12.5880   34.8550   75.6740 O.3   367  TYR367     -0.2866
    155  N         -9.5510   41.6170   77.7270 N.am  368  ASP368     -0.1974
    156  CA        -9.0380   42.5410   76.7160 C.3   368  ASP368      0.1709
    157  C         -9.6240   43.9360   76.9550 C.2   368  ASP368      0.2293
    158  O         -9.6900   44.7590   76.0320 O.2   368  ASP368     -0.2864
    159  CB        -9.4060   42.0970   75.2930 C.3   368  ASP368      0.1436
    160  CG        -8.9680   40.6840   74.9840 C.2   368  ASP368      0.3671
    161  OD1       -7.8380   40.3060   75.3590 O.co2 368  ASP368     -0.2456
    162  OD2       -9.7580   39.9530   74.3470 O.co2 368  ASP368     -0.2456
    163  N         -4.2130   34.3630   80.0350 N.3   421  TYR421     -0.1241
    164  CA        -3.0970   35.1790   79.5630 C.3   421  TYR421      0.1605
    165  C         -3.2070   36.5480   80.1910 C.2   421  TYR421      0.2264
    166  O         -4.2710   36.9460   80.6690 O.2   421  TYR421     -0.2867
    167  CB        -3.1410   35.3570   78.0390 C.3   421  TYR421      0.0534
    168  CG        -4.4170   36.0170   77.5420 C.ar  421  TYR421     -0.0201
    169  CD1       -5.5860   35.2760   77.3740 C.ar  421  TYR421     -0.0009
    170  CD2       -4.4670   37.3890   77.2900 C.ar  421  TYR421     -0.0009
    171  CE1       -6.7730   35.8810   76.9710 C.ar  421  TYR421      0.0417
    172  CE2       -5.6560   38.0070   76.8860 C.ar  421  TYR421      0.0417
    173  CZ        -6.8030   37.2450   76.7290 C.ar  421  TYR421      0.1957
    174  OH        -7.9800   37.8400   76.3350 O.3   421  TYR421     -0.2866
    175  N         -2.1440   40.8020   79.6600 N.3   423  ARG423     -0.1245
    176  CA        -1.7870   41.8170   78.6750 C.3   423  ARG423      0.1563
    177  C         -0.9060   42.7980   79.4400 C.2   423  ARG423      0.2260
    178  O         -1.1220   43.0210   80.6390 O.2   423  ARG423     -0.2867
    179  CB        -3.0340   42.5270   78.1380 C.3   423  ARG423      0.0307
    180  CG        -3.8240   41.6940   77.1410 C.3   423  ARG423      0.0489
    181  CD        -4.9670   42.4840   76.5240 C.3   423  ARG423      0.2205
    182  NE        -5.6250   41.7170   75.4700 N.pl3 423  ARG423     -0.0865
    183  CZ        -5.1170   41.5230   74.2550 C.cat 423  ARG423      0.5346
    184  NH1       -3.9440   42.0520   73.9280 N.pl3 423  ARG423      0.1354
    185  NH2       -5.7740   40.7790   73.3760 N.pl3 423  ARG423      0.1354
    186  N          4.4120   34.9810   72.8060 N.3   449  TRP449     -0.1227
    187  CA         4.3730   34.6360   71.3860 C.3   449  TRP449      0.1737
    188  C          4.1890   35.8630   70.4940 C.2   449  TRP449      0.2595
    189  O          4.5260   35.8360   69.3110 O.2   449  TRP449     -0.2718
    190  CB         3.2590   33.6140   71.1260 C.3   449  TRP449      0.0564
    191  CG         3.2710   32.4510   72.0940 C.ar  449  TRP449      0.0003
    192  CD1        2.4220   32.2550   73.1500 C.ar  449  TRP449      0.0946
    193  CD2        4.1890   31.3490   72.1110 C.ar  449  TRP449      0.0152
    194  NE1        2.7540   31.1000   73.8210 N.ar  449  TRP449     -0.2442
    195  CE2        3.8350   30.5250   73.2060 C.ar  449  TRP449      0.0810
    196  CE3        5.2760   30.9760   71.3060 C.ar  449  TRP449      0.0012
    197  CZ2        4.5300   29.3510   73.5190 C.ar  449  TRP449      0.0191
    198  CZ3        5.9680   29.8060   71.6150 C.ar  449  TRP449      0.0001
    199  CH2        5.5900   29.0070   72.7150 C.ar  449  TRP449      0.0015
    200  N          3.6390   36.9290   71.0620 N.am  450  GLU450     -0.1979
    201  CA         3.4390   38.1820   70.3400 C.3   450  GLU450      0.1602
    202  C          3.5160   39.2940   71.3790 C.2   450  GLU450      0.2287
    203  O          3.3830   39.0360   72.5790 O.2   450  GLU450     -0.2864
    204  CB         2.0830   38.2030   69.6100 C.3   450  GLU450      0.0415
    205  CG         0.8440   38.0630   70.4970 C.3   450  GLU450      0.1163
    206  CD        -0.4590   38.1410   69.7000 C.2   450  GLU450      0.3649
    207  OE1       -0.7690   39.2210   69.1500 O.co2 450  GLU450     -0.2457
    208  OE2       -1.1720   37.1180   69.6160 O.co2 450  GLU450     -0.2457
    209  N          1.3470   40.4120   75.1220 N.3   453  ILE453     -0.1245
    210  CA         0.5640   39.2780   75.6110 C.3   453  ILE453      0.1561
    211  C          1.4620   38.2000   76.2100 C.2   453  ILE453      0.2260
    212  O          2.4280   37.7740   75.5830 O.2   453  ILE453     -0.2867
    213  CB        -0.2770   38.6580   74.4670 C.3   453  ILE453      0.0252
    214  CG1       -1.1750   39.7350   73.8530 C.3   453  ILE453      0.0019
    215  CG2       -1.1120   37.5020   74.9980 C.3   453  ILE453      0.0019
    216  CD1       -1.9120   39.2920   72.5860 C.3   453  ILE453      0.0001
    217  N        -15.7380   30.2320   81.1110 N.3   514  PHE514     -0.1241
    218  CA       -14.9900   29.6860   79.9880 C.3   514  PHE514      0.1605
    219  C        -13.6920   30.4890   79.9410 C.2   514  PHE514      0.2264
    220  O        -13.6190   31.5940   80.4890 O.2   514  PHE514     -0.2867
    221  CB       -15.7710   29.7990   78.6670 C.3   514  PHE514      0.0534
    222  CG       -15.7150   31.1630   78.0340 C.ar  514  PHE514     -0.0203
    223  CD1      -16.5660   32.1780   78.4550 C.ar  514  PHE514     -0.0042
    224  CD2      -14.7930   31.4340   77.0270 C.ar  514  PHE514     -0.0042
    225  CE1      -16.5050   33.4500   77.8880 C.ar  514  PHE514     -0.0003
    226  CE2      -14.7190   32.7020   76.4510 C.ar  514  PHE514     -0.0003
    227  CZ       -15.5820   33.7180   76.8870 C.ar  514  PHE514     -0.0000
    228  N         -9.9570   31.5930   77.5170 N.3   516  TRP516     -0.1227
    229  CA        -9.3670   31.6220   76.1880 C.3   516  TRP516      0.1737
    230  C         -7.9850   30.9720   76.1320 C.2   516  TRP516      0.2595
    231  O         -7.0040   31.4160   76.7340 O.2   516  TRP516     -0.2718
    232  CB        -9.3090   33.0270   75.5960 C.3   516  TRP516      0.0564
    233  CG        -8.4770   33.0450   74.3480 C.ar  516  TRP516      0.0003
    234  CD1       -7.1960   33.5060   74.2260 C.ar  516  TRP516      0.0946
    235  CD2       -8.8210   32.4770   73.0750 C.ar  516  TRP516      0.0152
    236  NE1       -6.7180   33.2570   72.9600 N.ar  516  TRP516     -0.2442
    237  CE2       -7.6940   32.6250   72.2330 C.ar  516  TRP516      0.0810
    238  CE3       -9.9710   31.8540   72.5650 C.ar  516  TRP516      0.0012
    239  CZ2       -7.6810   32.1730   70.9130 C.ar  516  TRP516      0.0191
    240  CZ3       -9.9600   31.4040   71.2510 C.ar  516  TRP516      0.0001
    241  CH2       -8.8190   31.5650   70.4380 C.ar  516  TRP516      0.0015
    242  N         -7.9800   29.9050   75.3460 N.am  517  GLU517     -0.1979
    243  CA        -6.8960   28.9920   75.0680 C.3   517  GLU517      0.1602
    244  C         -6.1440   28.3560   76.2220 C.2   517  GLU517      0.2287
    245  O         -5.2990   28.9230   76.9280 O.2   517  GLU517     -0.2864
    246  CB        -5.9840   29.4960   73.9370 C.3   517  GLU517      0.0415
    247  CG        -4.9800   30.5750   74.1410 C.3   517  GLU517      0.1163
    248  CD        -4.2450   30.7940   72.8220 C.2   517  GLU517      0.3649
    249  OE1       -3.5160   29.8770   72.3830 O.co2 517  GLU517     -0.2457
    250  OE2       -4.4260   31.8560   72.2000 O.co2 517  GLU517     -0.2457
@<TRIPOS>BOND
     1    63    62    2
     2    62    61    1
     3    60    61    1
     4    69    68    2
     5    50    49    1
     6    48    49    1
     7    48    45    1
     8    61    64    1
     9    46    47    2
    10    46    45    1
    11    73    75   ar
    12    73    71   ar
    13    44    45    1
    14    75    74   ar
    15    68    67    1
    16    49    51    1
    17    55    54    2
    18    67    66    1
    19    67    70    1
    20    64    65    1
    21    71    70    1
    22    71    72   ar
    23    54    53    1
    24    74    72   ar
    25   112   110    1
    26    52    53    1
    27    53    56    1
    28   101   100    2
    29   108   107    2
    30    56    58    1
    31    56    57    1
    32   110   109    1
    33   110   111    1
    34   106   107    1
    35   106   109    1
    36   106   105    1
    37   100   105   am
    38   100    99    1
    39    57    59    1
    40   102    99    1
    41   102   103    1
    42   102   104    1
    43    99    98    1
    44    36    35    2
    45    76    77    1
    46    35    34    1
    47    77    78    1
    48    87    86    2
    49    98    86   am
    50    79    78    2
    51    78    80   am
    52    86    85    1
    53    83    82    2
    54    37    34    1
    55    37    38    1
    56    34    33    1
    57   124   123    2
    58    17    14    1
    59    80    81    1
    60   121   122    1
    61    82    81    1
    62    82    84   am
    63   116   115    2
    64    32    31    2
    65    14    13    1
    66    14    15    1
    67    85    84    1
    68    85    88    1
    69   123   122    1
    70    90    92   ar
    71    90    89   ar
    72    92    93   ar
    73    38    40   ar
    74    38    39   ar
    75    33    31   am
    76   115   114    1
    77   122   125    1
    78    40    42   ar
    79    31    30    1
    80   125   126    1
    81    89    88    1
    82    89    91   ar
    83    93    95   ar
    84    93    91   ar
    85    39    41   ar
    86   113   114    1
    87    95    97   ar
    88    16    15    2
    89    91    94   ar
    90   126   127    1
    91   114   117    1
    92    97    96   ar
    93    42    43   ar
    94   117   118    1
    95    41    43   ar
    96    94    96   ar
    97    30    29    1
    98   118   120   ar
    99   118   119   ar
   100   127   128   ar
   101   127   129   ar
   102   207   206   ar
   103    27    26    1
   104   189   188    2
   105   204   201    1
   106   204   205    1
   107   208   206   ar
   108   206   205    1
   109   133   132    2
   110    18    19    1
   111   201   200    1
   112   201   202    1
   113    26    28    1
   114    26    25    2
   115   241   239   ar
   116   241   240   ar
   117   188   200   am
   118   188   187    1
   119   130   131    1
   120   239   237   ar
   121   190   187    1
   122   190   191    1
   123    10     8   ar
   124    10    11   ar
   125   240   238   ar
   126    23    24    1
   127    23    22    1
   128   196   198   ar
   129   196   193   ar
   130   132   131    1
   131    24    25    1
   132   202   203    2
   133   187   186    1
   134   134   131    1
   135   142   141    1
   136     8     6   ar
   137    19    22    1
   138    19    20    1
   139   198   199   ar
   140    20    21    2
   141    12    11    1
   142   191   193   ar
   143   191   192   ar
   144   193   195   ar
   145   250   248   ar
   146   237   236   ar
   147   237   235   ar
   148    11     9   ar
   149   249   248   ar
   150   141   140    1
   151   238   235   ar
   152   216   214    1
   153   199   197   ar
   154     6     5    1
   155     6     7   ar
   156   248   247    1
   157   236   234   ar
   158     5     2    1
   159   235   233   ar
   160   192   194   ar
   161   195   197   ar
   162   195   194   ar
   163   185   183    1
   164     3     2    1
   165     3     4    2
   166     9     7   ar
   167     2     1    1
   168   214   213    1
   169   184   183    1
   170   246   247    1
   171   246   243    1
   172   140   139    1
   173   234   233   ar
   174   183   182    2
   175   162   160   ar
   176   233   232    1
   177   213   215    1
   178   213   210    1
   179   139   136    1
   180   160   159    1
   181   160   161   ar
   182   243   242    1
   183   243   244    1
   184   209   210    1
   185   159   156    1
   186   242   230   am
   187   182   181    1
   188   212   211    2
   189   232   229    1
   190   210   211    1
   191   154   153    1
   192   151   153   ar
   193   151   149   ar
   194   158   157    2
   195   230   229    1
   196   230   231    2
   197   229   228    1
   198   244   245    2
   199   135   136    1
   200   136   137    1
   201   174   173    1
   202   226   227   ar
   203   226   224   ar
   204   153   152   ar
   205   181   180    1
   206   149   148   ar
   207   156   157    1
   208   156   155    1
   209   173   172   ar
   210   173   171   ar
   211   138   137    2
   212   172   170   ar
   213   227   225   ar
   214   171   169   ar
   215   146   145    2
   216   224   222   ar
   217   180   179    1
   218   170   168   ar
   219   169   168   ar
   220   168   167    1
   221   155   145   am
   222   145   144    1
   223   152   150   ar
   224   225   223   ar
   225   222   223   ar
   226   222   221    1
   227   148   150   ar
   228   148   147    1
   229   167   164    1
   230   179   176    1
   231   221   218    1
   232   176   177    1
   233   176   175    1
   234   143   144    1
   235   147   144    1
   236   177   178    2
   237   164   163    1
   238   164   165    1
   239   219   218    1
   240   219   220    2
   241   218   217    1
   242   165   166    2
