@<TRIPOS>MOLECULE
tmp/1x6uA00.pdb
 175 167 0 0 0
SMALL
GASTEIGER

@<TRIPOS>ATOM
      1  N         12.0550  -16.2730   38.2570 N.3    26  ASN26      -0.1240
      2  CA        11.5430  -14.9270   38.1260 C.3    26  ASN26       0.1653
      3  C         11.4530  -14.5560   36.6660 C.2    26  ASN26       0.2266
      4  O         10.3620  -14.5430   36.0840 O.2    26  ASN26      -0.2867
      5  CB        12.4170  -13.9240   38.8630 C.3    26  ASN26       0.1155
      6  CG        11.7960  -12.5340   38.8920 C.2    26  ASN26       0.2627
      7  OD1       11.5940  -11.9040   37.8520 O.2    26  ASN26      -0.2716
      8  ND2       11.4830  -12.0550   40.0870 N.am   26  ASN26      -0.0877
      9  N          6.4600  -21.3830   35.8560 N.3    55  LYS55      -0.1245
     10  CA         6.1750  -19.9530   35.7120 C.3    55  LYS55       0.1561
     11  C          7.4660  -19.1660   35.4660 C.2    55  LYS55       0.2260
     12  O          8.5220  -19.4810   36.0300 O.2    55  LYS55      -0.2867
     13  CB         5.4500  -19.4210   36.9610 C.3    55  LYS55       0.0271
     14  CG         6.2480  -18.4820   37.8500 C.3    55  LYS55       0.0035
     15  CD         6.2680  -17.0620   37.2910 C.3    55  LYS55       0.0206
     16  CE         7.1530  -16.1540   38.1350 C.3    55  LYS55       0.1093
     17  NZ         7.4160  -14.8600   37.4370 N.3    55  LYS55      -0.1314
     18  N          8.8300  -14.9700   33.7750 N.3    57  SER57      -0.1217
     19  CA         8.5240  -13.7020   33.1230 C.3    57  SER57       0.1889
     20  C          9.4260  -13.5290   31.8960 C.2    57  SER57       0.2288
     21  O         10.6300  -13.7990   31.9590 O.2    57  SER57      -0.2866
     22  CB         8.7350  -12.5420   34.1060 C.3    57  SER57       0.2089
     23  OG         7.8350  -12.6420   35.2000 O.3    57  SER57      -0.2183
     24  N          9.9440   -7.4280   31.9800 N.3    60  LYS60      -0.1231
     25  CA        10.0990   -6.7200   33.2540 C.3    60  LYS60       0.1693
     26  C          9.9670   -5.2190   33.0100 C.2    60  LYS60       0.2592
     27  O         10.8530   -4.5940   32.4150 O.2    60  LYS60      -0.2718
     28  CB        11.4690   -7.0170   33.8790 C.3    60  LYS60       0.0285
     29  CG        11.6130   -8.4310   34.4490 C.3    60  LYS60       0.0035
     30  CD        11.2890   -8.5070   35.9510 C.3    60  LYS60       0.0206
     31  CE         9.8670   -8.0490   36.2890 C.3    60  LYS60       0.1093
     32  NZ         8.8040   -8.9530   35.7620 N.3    60  LYS60      -0.1314
     33  N          8.8620   -4.6450   33.4790 N.am   61  ALA61      -0.1966
     34  CA         8.6050   -3.2250   33.2860 C.3    61  ALA61       0.1728
     35  C          8.9210   -2.3120   34.4810 C.2    61  ALA61       0.2616
     36  O          8.9480   -1.0910   34.3260 O.2    61  ALA61      -0.2715
     37  CB         7.1480   -3.0260   32.8500 C.3    61  ALA61       0.0334
     38  N          9.1750   -2.8780   35.6600 N.am   62  ASN62      -0.1958
     39  CA         9.4540   -2.0480   36.8400 C.3    62  ASN62       0.1819
     40  C         10.9150   -1.9920   37.2440 C.2    62  ASN62       0.2621
     41  O         11.2330   -1.6370   38.3770 O.2    62  ASN62      -0.2715
     42  CB         8.6890   -2.5610   38.0440 C.3    62  ASN62       0.1195
     43  CG         7.3510   -3.0980   37.6820 C.2    62  ASN62       0.2630
     44  OD1        6.4080   -2.3480   37.4380 O.2    62  ASN62      -0.2716
     45  ND2        7.2540   -4.4170   37.6250 N.am   62  ASN62      -0.0877
     46  N         11.8010   -2.3400   36.3280 N.am   63  ARG63      -0.1977
     47  CA        13.2150   -2.3390   36.6360 C.3    63  ARG63       0.1597
     48  C         13.7380   -0.9190   36.7940 C.2    63  ARG63       0.2287
     49  O         13.1680    0.0250   36.2470 O.2    63  ARG63      -0.2864
     50  CB        14.0080   -3.0830   35.5550 C.3    63  ARG63       0.0334
     51  CG        13.3270   -4.3520   35.0540 C.3    63  ARG63       0.0492
     52  CD        13.4150   -5.4440   36.1060 C.3    63  ARG63       0.2205
     53  NE        12.5350   -5.1840   37.2400 N.pl3  63  ARG63      -0.0865
     54  CZ        11.2110   -5.0990   37.1560 C.cat  63  ARG63       0.5346
     55  NH1       10.6030   -5.2540   35.9880 N.pl3  63  ARG63       0.1354
     56  NH2       10.4920   -4.8530   38.2410 N.pl3  63  ARG63       0.1354
     57  N          3.1760  -13.5240   33.0010 N.3    95  ASP95      -0.1239
     58  CA         2.4350  -12.2710   33.1150 C.3    95  ASP95       0.1674
     59  C          2.4860  -11.3850   31.8700 C.2    95  ASP95       0.2266
     60  O          3.4500  -11.4350   31.1200 O.2    95  ASP95      -0.2867
     61  CB         2.9800  -11.4890   34.3100 C.3    95  ASP95       0.1410
     62  CG         4.4880  -11.2220   34.2030 C.2    95  ASP95       0.3668
     63  OD1        5.2750  -12.1950   34.1800 O.co2  95  ASP95      -0.2456
     64  OD2        4.8660  -10.0340   34.1340 O.co2  95  ASP95      -0.2456
     65  N          1.7420   -7.2290   30.2050 N.3    97  HIS97      -0.1241
     66  CA         1.7360   -5.8470   30.6720 C.3    97  HIS97       0.1621
     67  C          0.9010   -4.8950   29.8210 C.2    97  HIS97       0.2264
     68  O          0.3320   -3.9400   30.3450 O.2    97  HIS97      -0.2867
     69  CB         3.1670   -5.2960   30.7750 C.3    97  HIS97       0.0745
     70  CG         4.0920   -6.1370   31.6140 C.ar   97  HIS97       0.0817
     71  ND1        4.5330   -7.3780   31.2070 N.ar   97  HIS97      -0.2268
     72  CD2        4.6370   -5.9210   32.8340 C.ar   97  HIS97       0.1154
     73  CE1        5.3100   -7.8930   32.1460 C.ar   97  HIS97       0.1986
     74  NE2        5.3910   -7.0340   33.1420 N.ar   97  HIS97      -0.2212
     75  N         -1.3460  -14.0930   33.4500 N.3   113  GLN113     -0.1245
     76  CA        -1.3540  -13.4800   34.7800 C.3   113  GLN113      0.1566
     77  C         -1.4760  -11.9720   34.7290 C.2   113  GLN113      0.2260
     78  O         -0.8870  -11.3200   33.8770 O.2   113  GLN113     -0.2867
     79  CB        -0.0750  -13.8590   35.5330 C.3   113  GLN113      0.0367
     80  CG        -0.0510  -13.4340   36.9790 C.3   113  GLN113      0.0905
     81  CD         1.2750  -13.7220   37.6650 C.2   113  GLN113      0.2608
     82  OE1        2.2500  -12.9780   37.5080 O.2   113  GLN113     -0.2717
     83  NE2        1.3270  -14.8240   38.4080 N.am  113  GLN113     -0.0878
     84  N         -0.6320   -8.5590   36.6220 N.3   115  PRO115     -0.2102
     85  CA         0.2920   -7.9140   37.5730 C.3   115  PRO115      0.1504
     86  C         -0.4890   -7.0790   38.5900 C.2   115  PRO115      0.2576
     87  O         -1.5580   -6.5700   38.2680 O.2   115  PRO115     -0.2718
     88  CB         1.1620   -7.0680   36.6570 C.3   115  PRO115      0.0282
     89  CG         1.2440   -7.9130   35.4050 C.3   115  PRO115      0.0208
     90  CD        -0.2190   -8.3010   35.2290 C.3   115  PRO115      0.0893
     91  N          0.0160   -6.9200   39.8090 N.am  116  ALA116     -0.1966
     92  CA        -0.7390   -6.1550   40.8060 C.3   116  ALA116      0.1728
     93  C         -0.9000   -4.6940   40.4420 C.2   116  ALA116      0.2616
     94  O         -2.0080   -4.1620   40.4480 O.2   116  ALA116     -0.2715
     95  CB        -0.0830   -6.2730   42.1640 C.3   116  ALA116      0.0334
     96  N          0.2150   -4.0550   40.1050 N.am  117  PHE117     -0.1960
     97  CA         0.2180   -2.6350   39.7520 C.3   117  PHE117      0.1771
     98  C         -0.7960   -2.3200   38.6690 C.2   117  PHE117      0.2619
     99  O         -1.2170   -1.1760   38.5150 O.2   117  PHE117     -0.2715
    100  CB         1.6100   -2.2110   39.2730 C.3   117  PHE117      0.0574
    101  CG         2.7140   -2.5580   40.2380 C.ar  117  PHE117     -0.0200
    102  CD1        2.7680   -1.9830   41.5090 C.ar  117  PHE117     -0.0042
    103  CD2        3.6870   -3.4860   39.8840 C.ar  117  PHE117     -0.0042
    104  CE1        3.7790   -2.3290   42.4090 C.ar  117  PHE117     -0.0003
    105  CE2        4.7030   -3.8380   40.7760 C.ar  117  PHE117     -0.0003
    106  CZ         4.7460   -3.2590   42.0410 C.ar  117  PHE117     -0.0000
    107  N         -1.1920   -3.3500   37.9310 N.am  118  LEU118     -0.1977
    108  CA        -2.1360   -3.1980   36.8350 C.3   118  LEU118      0.1596
    109  C         -3.4810   -3.8700   37.1090 C.2   118  LEU118      0.2287
    110  O         -4.3540   -3.9130   36.2370 O.2   118  LEU118     -0.2864
    111  CB        -1.5160   -3.7830   35.5700 C.3   118  LEU118      0.0297
    112  CG        -0.0660   -3.3680   35.3480 C.3   118  LEU118      0.0022
    113  CD1        0.5340   -4.2030   34.2390 C.3   118  LEU118      0.0001
    114  CD2       -0.0120   -1.8810   35.0360 C.3   118  LEU118      0.0001
    115  N         -2.9910  -11.1390   40.7210 N.3   138  LYS138     -0.1245
    116  CA        -2.1610  -10.9330   41.9090 C.3   138  LYS138      0.1561
    117  C         -2.8290   -9.8560   42.7530 C.2   138  LYS138      0.2260
    118  O         -3.1240   -8.8020   42.2450 O.2   138  LYS138     -0.2867
    119  CB        -0.7560  -10.4800   41.5030 C.3   138  LYS138      0.0271
    120  CG         0.0620  -11.4900   40.6520 C.3   138  LYS138      0.0035
    121  CD         0.5100  -12.7160   41.4560 C.3   138  LYS138      0.0206
    122  CE         1.5100  -12.3540   42.5470 C.3   138  LYS138      0.1093
    123  NZ         2.8610  -12.0860   41.9990 N.3   138  LYS138     -0.1314
    124  N          1.4080  -16.3310   47.1650 N.3   199  ASP199     -0.1239
    125  CA         2.7230  -16.0730   46.5730 C.3   199  ASP199      0.1674
    126  C          3.7060  -15.7840   47.7060 C.2   199  ASP199      0.2266
    127  O          3.9690  -14.6330   48.0440 O.2   199  ASP199     -0.2867
    128  CB         2.6960  -14.8700   45.6370 C.3   199  ASP199      0.1410
    129  CG         4.0150  -14.6820   44.9120 C.2   199  ASP199      0.3668
    130  OD1        4.9910  -15.3640   45.2930 O.co2 199  ASP199     -0.2456
    131  OD2        4.0770  -13.8580   43.9840 O.co2 199  ASP199     -0.2456
    132  N          7.0830  -16.1780   47.9890 N.3   201  THR201     -0.1203
    133  CA         8.3370  -15.4770   47.6980 C.3   201  THR201      0.1994
    134  C          8.1690  -13.9760   47.4810 C.2   201  THR201      0.2617
    135  O          9.0940  -13.2200   47.7220 O.2   201  THR201     -0.2717
    136  CB         9.1200  -16.0850   46.4570 C.3   201  THR201      0.1784
    137  OG1        8.2060  -16.3500   45.3920 O.3   201  THR201     -0.2211
    138  CG2        9.8770  -17.3670   46.8280 C.3   201  THR201      0.0376
    139  N          7.0020  -13.5370   47.0250 N.am  202  HIS202     -0.1975
    140  CA         6.7830  -12.1180   46.7940 C.3   202  HIS202      0.1656
    141  C          6.2430  -11.4240   48.0540 C.2   202  HIS202      0.2291
    142  O          6.2110  -10.2020   48.1430 O.2   202  HIS202     -0.2864
    143  CB         5.8460  -11.9270   45.5980 C.3   202  HIS202      0.0771
    144  CG         5.8890  -10.5510   44.9990 C.ar  202  HIS202      0.0820
    145  ND1        5.5770  -10.3080   43.6790 N.ar  202  HIS202     -0.2267
    146  CD2        6.1990   -9.3510   45.5430 C.ar  202  HIS202      0.1154
    147  CE1        5.6950   -9.0170   43.4320 C.ar  202  HIS202      0.1986
    148  NE2        6.0710   -8.4100   44.5450 N.ar  202  HIS202     -0.2212
    149  N          2.4870  -20.3510   45.0710 N.3   225  PHE225     -0.1241
    150  CA         3.2680  -19.7180   44.0120 C.3   225  PHE225      0.1605
    151  C          4.6250  -19.4910   44.6090 C.2   225  PHE225      0.2264
    152  O          4.7230  -19.0350   45.7360 O.2   225  PHE225     -0.2867
    153  CB         2.6230  -18.3750   43.6370 C.3   225  PHE225      0.0534
    154  CG         3.2620  -17.6850   42.4640 C.ar  225  PHE225     -0.0203
    155  CD1        4.4980  -17.0290   42.5880 C.ar  225  PHE225     -0.0042
    156  CD2        2.6010  -17.6470   41.2360 C.ar  225  PHE225     -0.0042
    157  CE1        5.0660  -16.3580   41.4950 C.ar  225  PHE225     -0.0003
    158  CE2        3.1610  -16.9770   40.1370 C.ar  225  PHE225     -0.0003
    159  CZ         4.3900  -16.3280   40.2710 C.ar  225  PHE225     -0.0000
    160  N          9.2740  -19.1650   43.6290 N.3   227  GLU227     -0.1245
    161  CA        10.3630  -18.9720   42.6760 C.3   227  GLU227      0.1567
    162  C         11.6310  -19.4590   43.3460 C.2   227  GLU227      0.2260
    163  O         11.7750  -19.3790   44.5730 O.2   227  GLU227     -0.2867
    164  CB        10.5380  -17.4960   42.3210 C.3   227  GLU227      0.0388
    165  CG         9.2580  -16.7690   41.9530 C.3   227  GLU227      0.1160
    166  CD         9.5320  -15.4810   41.2070 C.2   227  GLU227      0.3649
    167  OE1       10.6380  -14.9160   41.3960 O.co2 227  GLU227     -0.2457
    168  OE2        8.6420  -15.0410   40.4440 O.co2 227  GLU227     -0.2457
    169  N         11.6530   -9.9360   44.4200 N.3   240  PRO240     -0.2116
    170  CA        11.2270  -10.9840   45.3380 C.3   240  PRO240      0.1372
    171  C         12.4580  -11.5290   46.0420 C.2   240  PRO240      0.2244
    172  O         13.4530  -10.8210   46.2570 O.2   240  PRO240     -0.2868
    173  CB        10.6080  -12.0380   44.4240 C.3   240  PRO240      0.0268
    174  CG        10.8520  -11.5210   42.9920 C.3   240  PRO240      0.0207
    175  CD        11.8840  -10.4660   43.0720 C.3   240  PRO240      0.0892
@<TRIPOS>BOND
     1    67    68    2
     2    67    66    1
     3    65    66    1
     4    66    69    1
     5    69    70    1
     6    60    59    2
     7    71    70   ar
     8    71    73   ar
     9    70    72   ar
    10    59    58    1
    11    20    21    2
    12    20    19    1
    13    24    25    1
    14    73    74   ar
    15    27    26    2
    16    72    74   ar
    17    37    34    1
    18    57    58    1
    19    26    25    1
    20    26    33   am
    21    58    61    1
    22    19    18    1
    23    19    22    1
    24    25    28    1
    25    34    33    1
    26    34    35    1
    27    75    76    1
    28    78    77    2
    29    28    29    1
    30    22    23    1
    31    64    62   ar
    32    63    62   ar
    33    62    61    1
    34   113   112    1
    35    36    35    2
    36    29    30    1
    37    35    38   am
    38    77    76    1
    39    76    79    1
    40   114   112    1
    41    51    50    1
    42    51    52    1
    43    90    89    1
    44    90    84    1
    45   112   111    1
    46    89    88    1
    47    11    10    1
    48    11    12    2
    49    79    80    1
    50    50    47    1
    51   111   108    1
    52    38    39    1
    53    10     9    1
    54    10    13    1
    55    32    31    1
    56    30    31    1
    57    55    54    1
    58     4     3    2
    59    52    53    1
    60   110   109    2
    61    49    48    2
    62    46    47    1
    63    46    40   am
    64    84    85    1
    65    47    48    1
    66    88    85    1
    67     3     2    1
    68   108   109    1
    69   108   107    1
    70    39    40    1
    71    39    42    1
    72    13    14    1
    73    80    81    1
    74    54    53    2
    75    54    56    1
    76    40    41    2
    77    15    14    1
    78    15    16    1
    79    17    16    1
    80    44    43    2
    81    82    81    2
    82    85    86    1
    83    45    43   am
    84    81    83   am
    85    43    42    1
    86     7     6    2
    87   107    98   am
    88     2     1    1
    89     2     5    1
    90    87    86    2
    91    99    98    2
    92    86    91   am
    93    98    97    1
    94     5     6    1
    95     6     8   am
    96   100    97    1
    97   100   101    1
    98    97    96    1
    99    91    92    1
   100   103   101   ar
   101   103   105   ar
   102    96    93   am
   103   158   159   ar
   104   158   156   ar
   105   101   102   ar
   106   159   157   ar
   107    93    94    2
   108    93    92    1
   109   168   166   ar
   110   120   121    1
   111   120   119    1
   112   115   116    1
   113   105   106   ar
   114    92    95    1
   115   166   167   ar
   116   166   165    1
   117   156   154   ar
   118   121   122    1
   119   157   155   ar
   120   119   116    1
   121   102   104   ar
   122   116   117    1
   123   165   164    1
   124   123   122    1
   125   106   104   ar
   126   118   117    2
   127   164   161    1
   128   154   155   ar
   129   154   153    1
   130   161   162    1
   131   161   160    1
   132   174   175    1
   133   174   173    1
   134   175   169    1
   135   162   163    2
   136   147   145   ar
   137   147   148   ar
   138   153   150    1
   139   145   144   ar
   140   131   129   ar
   141   150   151    1
   142   150   149    1
   143   169   170    1
   144   173   170    1
   145   148   146   ar
   146   151   152    2
   147   129   130   ar
   148   129   128    1
   149   144   146   ar
   150   144   143    1
   151   170   171    1
   152   137   136    1
   153   143   140    1
   154   128   125    1
   155   171   172    2
   156   136   138    1
   157   136   133    1
   158   125   124    1
   159   125   126    1
   160   140   139    1
   161   140   141    1
   162   139   134   am
   163   134   133    1
   164   134   135    2
   165   133   132    1
   166   126   127    2
   167   141   142    2
