@<TRIPOS>MOLECULE
tmp/1x71A01.pdb
 99 94 0 0 0
SMALL
GASTEIGER

@<TRIPOS>ATOM
      1  N         39.8700   72.2530   61.7440 N.3    50  TYR50      -0.1241
      2  CA        39.1480   71.3150   62.5940 C.3    50  TYR50       0.1605
      3  C         38.3860   70.4000   61.6240 C.2    50  TYR50       0.2264
      4  O         38.4510   70.5700   60.4180 O.2    50  TYR50      -0.2867
      5  CB        38.1930   72.0150   63.5790 C.3    50  TYR50       0.0534
      6  CG        37.1140   72.8890   62.9150 C.ar   50  TYR50      -0.0201
      7  CD1       37.4200   74.1910   62.4610 C.ar   50  TYR50      -0.0009
      8  CD2       35.7810   72.4480   62.8350 C.ar   50  TYR50      -0.0009
      9  CE1       36.4070   75.0440   61.9570 C.ar   50  TYR50       0.0417
     10  CE2       34.7370   73.3070   62.3210 C.ar   50  TYR50       0.0417
     11  CZ        35.0800   74.5980   61.8890 C.ar   50  TYR50       0.1957
     12  OH        34.1390   75.4230   61.3490 O.3    50  TYR50      -0.2866
     13  N         34.7260   67.8460   60.7400 N.3    52  THR52      -0.1218
     14  CA        33.3490   67.6090   61.0990 C.3    52  THR52       0.1862
     15  C         32.9780   66.2910   60.4820 C.2    52  THR52       0.2287
     16  O         33.1470   66.0680   59.2950 O.2    52  THR52      -0.2866
     17  CB        32.4690   68.7610   60.5910 C.3    52  THR52       0.1770
     18  OG1       32.8930   69.9870   61.2560 O.3    52  THR52      -0.2211
     19  CG2       31.0730   68.4690   60.9140 C.3    52  THR52       0.0375
     20  N         31.9160   67.6070   65.7200 N.3    66  SER66      -0.1217
     21  CA        33.0570   68.4330   65.2520 C.3    66  SER66       0.1889
     22  C         34.1990   68.2350   66.2600 C.2    66  SER66       0.2288
     23  O         33.9860   67.9730   67.4440 O.2    66  SER66      -0.2866
     24  CB        32.6510   69.8970   65.1350 C.3    66  SER66       0.2089
     25  OG        32.1690   70.1870   63.8010 O.3    66  SER66      -0.2183
     26  N         38.0060   69.8520   67.3860 N.3    68  LEU68      -0.1245
     27  CA        38.9640   70.9570   67.2720 C.3    68  LEU68       0.1561
     28  C         40.0900   70.7440   68.2630 C.2    68  LEU68       0.2260
     29  O         39.8710   70.1480   69.3210 O.2    68  LEU68      -0.2867
     30  CB        38.2600   72.2690   67.6200 C.3    68  LEU68       0.0270
     31  CG        37.0590   72.8000   66.8030 C.3    68  LEU68       0.0019
     32  CD1       35.7250   71.9260   66.8230 C.3    68  LEU68       0.0001
     33  CD2       36.7580   74.1170   67.4400 C.3    68  LEU68       0.0001
     34  N         32.1340   68.6850   69.8280 N.3    77  TRP77      -0.1241
     35  CA        30.7950   69.2980   69.9340 C.3    77  TRP77       0.1605
     36  C         29.9460   68.3830   69.0280 C.2    77  TRP77       0.2264
     37  O         30.3960   67.9550   67.9480 O.2    77  TRP77      -0.2867
     38  CB        30.8190   70.7840   69.3880 C.3    77  TRP77       0.0550
     39  CG        31.6070   71.7160   70.2510 C.ar   77  TRP77       0.0003
     40  CD1       32.9670   71.7770   70.3720 C.ar   77  TRP77       0.0946
     41  CD2       31.0770   72.6730   71.1730 C.ar   77  TRP77       0.0152
     42  NE1       33.3100   72.7060   71.3260 N.ar   77  TRP77      -0.2442
     43  CE2       32.1700   73.2700   71.8320 C.ar   77  TRP77       0.0810
     44  CE3       29.7820   73.0810   71.5090 C.ar   77  TRP77       0.0012
     45  CZ2       32.0060   74.2450   72.8090 C.ar   77  TRP77       0.0191
     46  CZ3       29.6260   74.0440   72.4710 C.ar   77  TRP77       0.0001
     47  CH2       30.7290   74.6190   73.1140 C.ar   77  TRP77       0.0015
     48  N         26.0680   67.9920   67.2000 N.3    79  ARG79      -0.1245
     49  CA        24.7820   68.5900   66.9970 C.3    79  ARG79       0.1563
     50  C         24.0310   67.6240   66.1440 C.2    79  ARG79       0.2260
     51  O         24.6550   66.7450   65.5590 O.2    79  ARG79      -0.2867
     52  CB        24.8310   69.9460   66.3230 C.3    79  ARG79       0.0307
     53  CG        25.9150   70.1300   65.4310 C.3    79  ARG79       0.0489
     54  CD        26.6300   71.3730   65.8390 C.3    79  ARG79       0.2205
     55  NE        27.2060   72.0040   64.6620 N.pl3  79  ARG79      -0.0865
     56  CZ        28.2780   71.5490   64.0120 C.cat  79  ARG79       0.5346
     57  NH1       28.9150   70.4400   64.4410 N.pl3  79  ARG79       0.1354
     58  NH2       28.7080   72.1770   62.9250 N.pl3  79  ARG79       0.1354
     59  N         18.0520   77.9990   63.0780 N.3   104  TYR104     -0.1241
     60  CA        19.3300   77.4220   62.6340 C.3   104  TYR104      0.1605
     61  C         19.0220   76.6300   61.3710 C.2   104  TYR104      0.2264
     62  O         18.2510   75.6960   61.3850 O.2   104  TYR104     -0.2867
     63  CB        19.9020   76.5450   63.7260 C.3   104  TYR104      0.0534
     64  CG        21.3220   76.0630   63.4870 C.ar  104  TYR104     -0.0201
     65  CD1       21.5860   74.9500   62.6580 C.ar  104  TYR104     -0.0009
     66  CD2       22.4030   76.7370   64.0850 C.ar  104  TYR104     -0.0009
     67  CE1       22.9140   74.5110   62.4230 C.ar  104  TYR104      0.0417
     68  CE2       23.7050   76.3260   63.8750 C.ar  104  TYR104      0.0417
     69  CZ        23.9420   75.2120   63.0260 C.ar  104  TYR104      0.1957
     70  OH        25.2060   74.9030   62.7480 O.3   104  TYR104     -0.2866
     71  N         25.3570   78.0600   56.3640 N.3   121  PHE121     -0.1241
     72  CA        24.6060   77.9420   57.6400 C.3   121  PHE121      0.1605
     73  C         24.1010   79.3500   57.9970 C.2   121  PHE121      0.2264
     74  O         24.8640   80.3590   57.8270 O.2   121  PHE121     -0.2867
     75  CB        25.5130   77.5380   58.8470 C.3   121  PHE121      0.0534
     76  CG        26.3000   76.2570   58.6500 C.ar  121  PHE121     -0.0203
     77  CD1       25.8960   75.0790   59.2580 C.ar  121  PHE121     -0.0042
     78  CD2       27.4210   76.2220   57.8310 C.ar  121  PHE121     -0.0042
     79  CE1       26.5930   73.8720   59.0550 C.ar  121  PHE121     -0.0003
     80  CE2       28.1010   75.0010   57.6360 C.ar  121  PHE121     -0.0003
     81  CZ        27.6660   73.8260   58.2640 C.ar  121  PHE121     -0.0000
     82  N         21.8450   81.2110   61.3480 N.3   123  LYS123     -0.1245
     83  CA        21.1780   81.0140   62.6200 C.3   123  LYS123      0.1561
     84  C         20.8260   82.3460   63.2840 C.2   123  LYS123      0.2260
     85  O         21.4600   83.3960   63.0180 O.2   123  LYS123     -0.2867
     86  CB        22.0730   80.2220   63.5970 C.3   123  LYS123      0.0271
     87  CG        23.3770   80.9520   63.9890 C.3   123  LYS123      0.0035
     88  CD        24.1630   80.1540   65.0400 C.3   123  LYS123      0.0206
     89  CE        25.2820   81.0420   65.6210 C.3   123  LYS123      0.1093
     90  NZ        26.2630   80.3360   66.4630 N.3   123  LYS123     -0.1314
     91  N         27.4500   81.6340   57.9320 N.3   132  LYS132     -0.1245
     92  CA        28.8160   81.2830   57.5730 C.3   132  LYS132      0.1561
     93  C         28.7720   80.2620   56.4280 C.2   132  LYS132      0.2260
     94  O         27.7240   79.6450   56.1500 O.2   132  LYS132     -0.2867
     95  CB        29.5610   80.7790   58.8040 C.3   132  LYS132      0.0271
     96  CG        29.3020   79.3770   59.1540 C.3   132  LYS132      0.0035
     97  CD        30.1250   78.9390   60.3760 C.3   132  LYS132      0.0206
     98  CE        29.9780   77.4370   60.4690 C.3   132  LYS132      0.1093
     99  NZ        29.9760   76.9290   61.8500 N.3   132  LYS132     -0.1314
@<TRIPOS>BOND
     1    94    93    2
     2    71    72    1
     3    93    92    1
     4    92    91    1
     5    92    95    1
     6    80    78   ar
     7    80    81   ar
     8    72    73    1
     9    72    75    1
    10    74    73    2
    11    78    76   ar
    12    81    79   ar
    13    76    75    1
    14    76    77   ar
    15    95    96    1
    16    79    77   ar
    17    96    97    1
    18    16    15    2
    19    97    98    1
    20     4     3    2
    21    98    99    1
    22    15    14    1
    23    17    19    1
    24    17    14    1
    25    17    18    1
    26    13    14    1
    27    82    83    1
    28    12    11    1
    29    61    62    2
    30    61    60    1
    31     3     2    1
    32     1     2    1
    33    11     9   ar
    34    11    10   ar
    35     9     7   ar
    36    10     8   ar
    37    67    65   ar
    38    67    69   ar
    39     7     6   ar
    40     2     5    1
    41    83    84    1
    42    83    86    1
    43    60    59    1
    44    60    63    1
    45    65    64   ar
    46    70    69    1
    47     8     6   ar
    48     6     5    1
    49    58    56    1
    50    85    84    2
    51    69    68   ar
    52    64    63    1
    53    64    66   ar
    54    86    87    1
    55    25    24    1
    56    68    66   ar
    57    87    88    1
    58    56    57    1
    59    56    55    2
    60    55    54    1
    61    88    89    1
    62    24    21    1
    63    21    20    1
    64    21    22    1
    65    53    54    1
    66    53    52    1
    67    51    50    2
    68    89    90    1
    69    50    49    1
    70    22    23    2
    71    52    49    1
    72    31    32    1
    73    31    33    1
    74    31    30    1
    75    49    48    1
    76    27    26    1
    77    27    30    1
    78    27    28    1
    79    37    36    2
    80    28    29    2
    81    36    35    1
    82    38    35    1
    83    38    39    1
    84    34    35    1
    85    39    40   ar
    86    39    41   ar
    87    40    42   ar
    88    41    44   ar
    89    41    43   ar
    90    42    43   ar
    91    44    46   ar
    92    43    45   ar
    93    46    47   ar
    94    45    47   ar
