@<TRIPOS>MOLECULE
tmp/1x71A00.pdb
 97 96 0 0 0
SMALL
GASTEIGER

@<TRIPOS>ATOM
      1  N         30.5640   86.5240   61.2950 N.3    38  ALA38      -0.1231
      2  CA        31.2470   86.6100   62.5820 C.3    38  ALA38       0.1694
      3  C         32.6890   85.9960   62.4780 C.2    38  ALA38       0.2591
      4  O         33.3880   85.7940   63.4790 O.2    38  ALA38      -0.2718
      5  CB        30.4680   85.8740   63.6620 C.3    38  ALA38       0.0304
      6  N         33.1140   85.6650   61.2810 N.am   39  ILE39      -0.1980
      7  CA        34.4330   85.0630   61.1190 C.3    39  ILE39       0.1595
      8  C         35.4540   86.1830   60.8150 C.2    39  ILE39       0.2287
      9  O         35.2680   86.9280   59.8840 O.2    39  ILE39      -0.2864
     10  CB        34.4290   84.0750   59.8890 C.3    39  ILE39       0.0276
     11  CG1       33.5150   82.8750   60.1390 C.3    39  ILE39       0.0022
     12  CG2       35.8520   83.6530   59.5650 C.3    39  ILE39       0.0022
     13  CD1       33.7780   82.1380   61.4330 C.3    39  ILE39       0.0001
     14  N         26.0680   67.9920   67.2000 N.3    79  ARG79      -0.1245
     15  CA        24.7820   68.5900   66.9970 C.3    79  ARG79       0.1563
     16  C         24.0310   67.6240   66.1440 C.2    79  ARG79       0.2260
     17  O         24.6550   66.7450   65.5590 O.2    79  ARG79      -0.2867
     18  CB        24.8310   69.9460   66.3230 C.3    79  ARG79       0.0307
     19  CG        25.9150   70.1300   65.4310 C.3    79  ARG79       0.0489
     20  CD        26.6300   71.3730   65.8390 C.3    79  ARG79       0.2205
     21  NE        27.2060   72.0040   64.6620 N.pl3  79  ARG79      -0.0865
     22  CZ        28.2780   71.5490   64.0120 C.cat  79  ARG79       0.5346
     23  NH1       28.9150   70.4400   64.4410 N.pl3  79  ARG79       0.1354
     24  NH2       28.7080   72.1770   62.9250 N.pl3  79  ARG79       0.1354
     25  N         18.0520   77.9990   63.0780 N.3   104  TYR104     -0.1241
     26  CA        19.3300   77.4220   62.6340 C.3   104  TYR104      0.1605
     27  C         19.0220   76.6300   61.3710 C.2   104  TYR104      0.2264
     28  O         18.2510   75.6960   61.3850 O.2   104  TYR104     -0.2867
     29  CB        19.9020   76.5450   63.7260 C.3   104  TYR104      0.0534
     30  CG        21.3220   76.0630   63.4870 C.ar  104  TYR104     -0.0201
     31  CD1       21.5860   74.9500   62.6580 C.ar  104  TYR104     -0.0009
     32  CD2       22.4030   76.7370   64.0850 C.ar  104  TYR104     -0.0009
     33  CE1       22.9140   74.5110   62.4230 C.ar  104  TYR104      0.0417
     34  CE2       23.7050   76.3260   63.8750 C.ar  104  TYR104      0.0417
     35  CZ        23.9420   75.2120   63.0260 C.ar  104  TYR104      0.1957
     36  OH        25.2060   74.9030   62.7480 O.3   104  TYR104     -0.2866
     37  N         25.3570   78.0600   56.3640 N.3   121  PHE121     -0.1227
     38  CA        24.6060   77.9420   57.6400 C.3   121  PHE121      0.1736
     39  C         24.1010   79.3500   57.9970 C.2   121  PHE121      0.2595
     40  O         24.8640   80.3590   57.8270 O.2   121  PHE121     -0.2718
     41  CB        25.5130   77.5380   58.8470 C.3   121  PHE121      0.0547
     42  CG        26.3000   76.2570   58.6500 C.ar  121  PHE121     -0.0202
     43  CD1       25.8960   75.0790   59.2580 C.ar  121  PHE121     -0.0042
     44  CD2       27.4210   76.2220   57.8310 C.ar  121  PHE121     -0.0042
     45  CE1       26.5930   73.8720   59.0550 C.ar  121  PHE121     -0.0003
     46  CE2       28.1010   75.0010   57.6360 C.ar  121  PHE121     -0.0003
     47  CZ        27.6660   73.8260   58.2640 C.ar  121  PHE121     -0.0000
     48  N         22.8920   79.3960   58.5670 N.am  122  LYS122     -0.1966
     49  CA        22.3050   80.6550   59.0430 C.3   122  LYS122      0.1728
     50  C         21.5870   80.3790   60.3520 C.2   122  LYS122      0.2616
     51  O         20.8190   79.4180   60.4610 O.2   122  LYS122     -0.2715
     52  CB        21.2840   81.2670   58.0410 C.3   122  LYS122      0.0311
     53  CG        20.8650   82.7080   58.4030 C.3   122  LYS122      0.0038
     54  CD        19.9100   83.3470   57.3320 C.3   122  LYS122      0.0206
     55  CE        18.5550   82.6160   57.2050 C.3   122  LYS122      0.1093
     56  NZ        17.6610   82.7900   58.4730 N.3   122  LYS122     -0.1314
     57  N         21.8450   81.2110   61.3480 N.am  123  LYS123     -0.1977
     58  CA        21.1780   81.0140   62.6200 C.3   123  LYS123      0.1596
     59  C         20.8260   82.3460   63.2840 C.2   123  LYS123      0.2287
     60  O         21.4600   83.3960   63.0180 O.2   123  LYS123     -0.2864
     61  CB        22.0730   80.2220   63.5970 C.3   123  LYS123      0.0298
     62  CG        23.3770   80.9520   63.9890 C.3   123  LYS123      0.0038
     63  CD        24.1630   80.1540   65.0400 C.3   123  LYS123      0.0206
     64  CE        25.2820   81.0420   65.6210 C.3   123  LYS123      0.1093
     65  NZ        26.2630   80.3360   66.4630 N.3   123  LYS123     -0.1314
     66  N         23.3650   85.4070   62.2310 N.3   130  TYR130     -0.1227
     67  CA        24.7040   84.9900   61.7830 C.3   130  TYR130      0.1736
     68  C         24.6350   84.0310   60.6110 C.2   130  TYR130      0.2595
     69  O         23.7200   83.2030   60.4850 O.2   130  TYR130     -0.2718
     70  CB        25.4460   84.2700   62.8950 C.3   130  TYR130      0.0548
     71  CG        25.6350   85.0790   64.1450 C.ar  130  TYR130     -0.0200
     72  CD1       24.7090   85.0160   65.1950 C.ar  130  TYR130     -0.0009
     73  CD2       26.7540   85.9160   64.2920 C.ar  130  TYR130     -0.0009
     74  CE1       24.9040   85.7330   66.3380 C.ar  130  TYR130      0.0417
     75  CE2       26.9250   86.6490   65.4280 C.ar  130  TYR130      0.0417
     76  CZ        25.9970   86.5370   66.4600 C.ar  130  TYR130      0.1957
     77  OH        26.2280   87.1960   67.6690 O.3   130  TYR130     -0.2866
     78  N         25.6160   84.1460   59.7210 N.am  131  PHE131     -0.1962
     79  CA        25.6970   83.2010   58.6250 C.3   131  PHE131      0.1771
     80  C         27.1880   82.8710   58.3750 C.2   131  PHE131      0.2619
     81  O         28.0830   83.6910   58.6440 O.2   131  PHE131     -0.2715
     82  CB        24.9940   83.7210   57.3170 C.3   131  PHE131      0.0574
     83  CG        25.7470   84.8400   56.5520 C.ar  131  PHE131     -0.0200
     84  CD1       25.6610   86.1930   56.9540 C.ar  131  PHE131     -0.0042
     85  CD2       26.4940   84.5270   55.4150 C.ar  131  PHE131     -0.0042
     86  CE1       26.3190   87.2270   56.2450 C.ar  131  PHE131     -0.0003
     87  CE2       27.1600   85.5370   54.6780 C.ar  131  PHE131     -0.0003
     88  CZ        27.0880   86.9130   55.0890 C.ar  131  PHE131     -0.0000
     89  N         27.4500   81.6340   57.9320 N.am  132  LYS132     -0.1977
     90  CA        28.8160   81.2830   57.5730 C.3   132  LYS132      0.1596
     91  C         28.7720   80.2620   56.4280 C.2   132  LYS132      0.2287
     92  O         27.7240   79.6450   56.1500 O.2   132  LYS132     -0.2864
     93  CB        29.5610   80.7790   58.8040 C.3   132  LYS132      0.0298
     94  CG        29.3020   79.3770   59.1540 C.3   132  LYS132      0.0038
     95  CD        30.1250   78.9390   60.3760 C.3   132  LYS132      0.0206
     96  CE        29.9780   77.4370   60.4690 C.3   132  LYS132      0.1093
     97  NZ        29.9760   76.9290   61.8500 N.3   132  LYS132     -0.1314
@<TRIPOS>BOND
     1    87    88   ar
     2    87    85   ar
     3    88    86   ar
     4    85    83   ar
     5    92    91    2
     6    86    84   ar
     7    37    38    1
     8    91    90    1
     9    83    84   ar
    10    83    82    1
    11    55    54    1
    12    55    56    1
    13    82    79    1
    14    54    53    1
    15    90    89    1
    16    90    93    1
    17    46    44   ar
    18    46    47   ar
    19    38    39    1
    20    38    41    1
    21    40    39    2
    22    44    42   ar
    23    89    80   am
    24    39    48   am
    25    52    53    1
    26    52    49    1
    27    47    45   ar
    28    80    79    1
    29    80    81    2
    30    48    49    1
    31    79    78    1
    32    42    41    1
    33    42    43   ar
    34    93    94    1
    35    49    50    1
    36    45    43   ar
    37    94    95    1
    38    12    10    1
    39    78    68   am
    40     9     8    2
    41    10    11    1
    42    10     7    1
    43    11    13    1
    44    50    51    2
    45    50    57   am
    46    95    96    1
    47    96    97    1
    48    69    68    2
    49    68    67    1
    50     8     7    1
    51     7     6    1
    52     6     3   am
    53     1     2    1
    54    57    58    1
    55    27    28    2
    56    27    26    1
    57    67    66    1
    58    67    70    1
    59    33    31   ar
    60    33    35   ar
    61     3     2    1
    62     3     4    2
    63     2     5    1
    64    58    59    1
    65    58    61    1
    66    26    25    1
    67    26    29    1
    68    31    30   ar
    69    36    35    1
    70    70    71    1
    71    24    22    1
    72    60    59    2
    73    35    34   ar
    74    30    29    1
    75    30    32   ar
    76    61    62    1
    77    34    32   ar
    78    62    63    1
    79    22    23    1
    80    22    21    2
    81    71    73   ar
    82    71    72   ar
    83    73    75   ar
    84    21    20    1
    85    63    64    1
    86    72    74   ar
    87    75    76   ar
    88    19    20    1
    89    19    18    1
    90    17    16    2
    91    64    65    1
    92    16    15    1
    93    18    15    1
    94    74    76   ar
    95    76    77    1
    96    15    14    1
