@<TRIPOS>MOLECULE
tmp/1x76B00.pdb
 134 126 0 0 0
SMALL
GASTEIGER

@<TRIPOS>ATOM
      1  N         26.5640   34.9910    3.6200 N.3    41  ASP41      -0.1239
      2  CA        26.8860   36.3110    3.0930 C.3    41  ASP41       0.1674
      3  C         25.7500   36.8530    2.2240 C.2    41  ASP41       0.2266
      4  O         25.3180   37.9950    2.3960 O.2    41  ASP41      -0.2867
      5  CB        28.1880   36.2760    2.2900 C.3    41  ASP41       0.1410
      6  CG        28.8020   37.6550    2.1360 C.2    41  ASP41       0.3668
      7  OD1       29.6390   38.0360    2.9880 O.co2  41  ASP41      -0.2456
      8  OD2       28.4270   38.3680    1.1750 O.co2  41  ASP41      -0.2456
      9  N         22.9430   40.0840    2.9960 N.3    45  VAL45      -0.1245
     10  CA        22.5950   41.2250    2.1600 C.3    45  VAL45       0.1561
     11  C         21.0790   41.4040    2.1430 C.2    45  VAL45       0.2260
     12  O         20.5850   42.5220    2.2800 O.2    45  VAL45      -0.2867
     13  CB        23.1050   41.0590    0.7110 C.3    45  VAL45       0.0252
     14  CG1       22.6830   42.2660   -0.1340 C.3    45  VAL45       0.0019
     15  CG2       24.6120   40.9290    0.7060 C.3    45  VAL45       0.0019
     16  N         19.5930   42.7900    5.5220 N.3    48  ILE48      -0.1231
     17  CA        19.6560   44.2380    5.7010 C.3    48  ILE48       0.1692
     18  C         18.4500   44.8980    5.0550 C.2    48  ILE48       0.2592
     19  O         17.8150   45.7530    5.6580 O.2    48  ILE48      -0.2718
     20  CB        20.9380   44.8490    5.0900 C.3    48  ILE48       0.0266
     21  CG1       22.1770   44.1380    5.6420 C.3    48  ILE48       0.0019
     22  CG2       21.0190   46.3350    5.4330 C.3    48  ILE48       0.0020
     23  CD1       22.2370   44.0750    7.1500 C.3    48  ILE48       0.0001
     24  N         18.1320   44.4970    3.8280 N.am   49  SER49      -0.1952
     25  CA        16.9830   45.0560    3.1220 C.3    49  SER49       0.1924
     26  C         15.7080   44.7410    3.8940 C.2    49  SER49       0.2314
     27  O         14.8540   45.6060    4.0710 O.2    49  SER49      -0.2863
     28  CB        16.8830   44.4720    1.7120 C.3    49  SER49       0.2116
     29  OG        18.0090   44.8420    0.9420 O.3    49  SER49      -0.2180
     30  N         15.2400   47.1100    6.9730 N.3    52  LYS52      -0.1245
     31  CA        14.8290   48.4750    6.6510 C.3    52  LYS52       0.1561
     32  C         13.3260   48.5550    6.3680 C.2    52  LYS52       0.2260
     33  O         12.7570   49.6440    6.3410 O.2    52  LYS52      -0.2867
     34  CB        15.6190   49.0030    5.4430 C.3    52  LYS52       0.0271
     35  CG        17.1350   48.9760    5.6330 C.3    52  LYS52       0.0035
     36  CD        17.8880   49.7030    4.5100 C.3    52  LYS52       0.0206
     37  CE        17.6900   51.2170    4.5910 C.3    52  LYS52       0.1093
     38  NZ        18.4710   51.9790    3.5660 N.3    52  LYS52      -0.1314
     39  N         12.1420   50.8050   11.9030 N.3    57  PHE57      -0.1241
     40  CA        13.5600   50.4690   11.9920 C.3    57  PHE57       0.1605
     41  C         14.4500   51.5940   11.4740 C.2    57  PHE57       0.2264
     42  O         15.4340   51.9680   12.1210 O.2    57  PHE57      -0.2867
     43  CB        13.8680   49.1910   11.2100 C.3    57  PHE57       0.0534
     44  CG        15.2770   48.6990   11.3910 C.ar   57  PHE57      -0.0203
     45  CD1       15.6560   48.0440   12.5600 C.ar   57  PHE57      -0.0042
     46  CD2       16.2330   48.9090   10.4020 C.ar   57  PHE57      -0.0042
     47  CE1       16.9650   47.6030   12.7400 C.ar   57  PHE57      -0.0003
     48  CE2       17.5450   48.4740   10.5680 C.ar   57  PHE57      -0.0003
     49  CZ        17.9150   47.8170   11.7410 C.ar   57  PHE57      -0.0000
     50  N         21.3520   55.4240   13.2460 N.3    62  LEU62      -0.1231
     51  CA        22.1670   54.4840   12.4890 C.3    62  LEU62       0.1693
     52  C         22.9270   53.5370   13.3970 C.2    62  LEU62       0.2592
     53  O         23.1030   52.3630   13.0760 O.2    62  LEU62      -0.2718
     54  CB        23.1870   55.1940   11.6010 C.3    62  LEU62       0.0284
     55  CG        24.0410   54.1110   10.9170 C.3    62  LEU62       0.0019
     56  CD1       23.3670   53.6940    9.6390 C.3    62  LEU62       0.0001
     57  CD2       25.4390   54.5940   10.6580 C.3    62  LEU62       0.0001
     58  N         23.3870   54.0500   14.5290 N.am   63  PHE63      -0.1976
     59  CA        24.1400   53.2310   15.4520 C.3    63  PHE63       0.1639
     60  C         23.3050   52.1740   16.1520 C.2    63  PHE63       0.2290
     61  O         23.8400   51.1500   16.5620 O.2    63  PHE63      -0.2864
     62  CB        24.8710   54.1140   16.4590 C.3    63  PHE63       0.0560
     63  CG        25.9260   54.9860   15.8300 C.ar   63  PHE63      -0.0200
     64  CD1       26.6370   54.5410   14.7200 C.ar   63  PHE63      -0.0042
     65  CD2       26.2240   56.2360   16.3550 C.ar   63  PHE63      -0.0042
     66  CE1       27.6290   55.3260   14.1440 C.ar   63  PHE63      -0.0003
     67  CE2       27.2160   57.0300   15.7850 C.ar   63  PHE63      -0.0003
     68  CZ        27.9200   56.5730   14.6780 C.ar   63  PHE63      -0.0000
     69  N         20.6560   50.7110   14.6440 N.3    65  GLN65      -0.1231
     70  CA        20.4050   49.7580   13.5740 C.3    65  GLN65       0.1698
     71  C         21.5870   48.8090   13.4570 C.2    65  GLN65       0.2592
     72  O         21.4140   47.6020   13.2890 O.2    65  GLN65      -0.2718
     73  CB        20.2060   50.4880   12.2420 C.3    65  GLN65       0.0381
     74  CG        18.9260   51.2930   12.1480 C.3    65  GLN65       0.0905
     75  CD        18.8530   52.1180   10.8750 C.2    65  GLN65       0.2608
     76  OE1       19.0770   51.6130    9.7750 O.2    65  GLN65      -0.2717
     77  NE2       18.5310   53.3960   11.0200 N.am   65  GLN65      -0.0878
     78  N         22.7910   49.3630   13.5470 N.am   66  VAL66      -0.1980
     79  CA        24.0060   48.5650   13.4460 C.3    66  VAL66       0.1595
     80  C         24.1790   47.6170   14.6270 C.2    66  VAL66       0.2287
     81  O         24.5400   46.4530   14.4420 O.2    66  VAL66      -0.2864
     82  CB        25.2630   49.4600   13.3420 C.3    66  VAL66       0.0276
     83  CG1       26.5170   48.6050   13.3950 C.3    66  VAL66       0.0022
     84  CG2       25.2310   50.2510   12.0400 C.3    66  VAL66       0.0022
     85  N         21.5790   44.6360   14.3100 N.3    69  LEU69      -0.1231
     86  CA        21.9670   43.6660   13.3000 C.3    69  LEU69       0.1693
     87  C         23.2240   42.8660   13.6570 C.2    69  LEU69       0.2591
     88  O         23.2760   41.6560   13.4260 O.2    69  LEU69      -0.2718
     89  CB        22.1330   44.3700   11.9470 C.3    69  LEU69       0.0284
     90  CG        20.7900   44.8040   11.3330 C.3    69  LEU69       0.0019
     91  CD1       21.0020   45.5710   10.0400 C.3    69  LEU69       0.0001
     92  CD2       19.9410   43.5700   11.0830 C.3    69  LEU69       0.0001
     93  N         24.2330   43.5310   14.2200 N.am   70  GLU70      -0.1979
     94  CA        25.4720   42.8490   14.6060 C.3    70  GLU70       0.1602
     95  C         25.2020   41.8330   15.7070 C.2    70  GLU70       0.2287
     96  O         25.8500   40.7910   15.7890 O.2    70  GLU70      -0.2864
     97  CB        26.5040   43.8310   15.1610 C.3    70  GLU70       0.0415
     98  CG        27.0150   44.8800   14.2150 C.3    70  GLU70       0.1163
     99  CD        28.0720   45.7460   14.8790 C.2    70  GLU70       0.3649
    100  OE1       27.8070   46.2820   15.9810 O.co2  70  GLU70      -0.2457
    101  OE2       29.1690   45.8870   14.3020 O.co2  70  GLU70      -0.2457
    102  N         34.9620   40.3670    4.4010 N.3   217  ASP217     -0.1225
    103  CA        33.9590   41.3700    4.0820 C.3   217  ASP217      0.1805
    104  C         32.7690   41.4200    5.0390 C.2   217  ASP217      0.2597
    105  O         32.9490   41.4660    6.2530 O.2   217  ASP217     -0.2718
    106  CB        33.4960   41.1680    2.6370 C.3   217  ASP217      0.1424
    107  CG        34.6100   41.4480    1.6270 C.2   217  ASP217      0.3668
    108  OD1       35.0880   42.6050    1.5730 O.co2 217  ASP217     -0.2456
    109  OD2       35.0150   40.5150    0.8940 O.co2 217  ASP217     -0.2456
    110  N         31.5600   41.4180    4.4910 N.am  218  LEU218     -0.1979
    111  CA        30.3520   41.4970    5.3060 C.3   218  LEU218      0.1596
    112  C         30.3360   40.4470    6.4130 C.2   218  LEU218      0.2287
    113  O         30.2820   40.7820    7.5960 O.2   218  LEU218     -0.2864
    114  CB        29.1080   41.3280    4.4300 C.3   218  LEU218      0.0297
    115  CG        27.8700   42.1900    4.7150 C.3   218  LEU218      0.0022
    116  CD1       26.6340   41.3990    4.3180 C.3   218  LEU218      0.0001
    117  CD2       27.7880   42.5900    6.1840 C.3   218  LEU218      0.0001
    118  N         32.7940   41.1950    9.1250 N.3   221  GLU221     -0.1231
    119  CA        32.4200   42.3720    9.9130 C.3   221  GLU221      0.1699
    120  C         31.3430   42.0040   10.9280 C.2   221  GLU221      0.2592
    121  O         31.3700   42.4590   12.0700 O.2   221  GLU221     -0.2718
    122  CB        31.8780   43.4840    9.0090 C.3   221  GLU221      0.0402
    123  CG        32.8530   44.6140    8.7230 C.3   221  GLU221      0.1161
    124  CD        32.2190   45.7300    7.9030 C.2   221  GLU221      0.3649
    125  OE1       31.1650   46.2580    8.3220 O.co2 221  GLU221     -0.2457
    126  OE2       32.7740   46.0800    6.8390 O.co2 221  GLU221     -0.2457
    127  N         30.3870   41.1890   10.4910 N.am  222  MET222     -0.1979
    128  CA        29.2910   40.7560   11.3490 C.3   222  MET222      0.1605
    129  C         29.8150   39.8280   12.4340 C.2   222  MET222      0.2287
    130  O         29.3540   39.8660   13.5760 O.2   222  MET222     -0.2864
    131  CB        28.2310   40.0290   10.5250 C.3   222  MET222      0.0413
    132  CG        27.6440   40.8530    9.4000 C.3   222  MET222      0.0598
    133  SD        26.9370   42.4020    9.9860 S.3   222  MET222     -0.1393
    134  CE        25.3560   41.8340   10.6580 C.3   222  MET222      0.0692
@<TRIPOS>BOND
     1    14    13    1
     2    15    13    1
     3    13    10    1
     4   109   107   ar
     5    29    28    1
     6     8     6   ar
     7   108   107   ar
     8   107   106    1
     9    28    25    1
    10     6     5    1
    11     6     7   ar
    12    11    10    1
    13    11    12    2
    14    10     9    1
    15     3     4    2
    16     3     2    1
    17     5     2    1
    18   106   103    1
    19     2     1    1
    20    25    24    1
    21    25    26    1
    22    38    37    1
    23    24    18   am
    24    26    27    2
    25   103   102    1
    26   103   104    1
    27   116   115    1
    28   114   115    1
    29   114   111    1
    30   110   104   am
    31   110   111    1
    32    36    37    1
    33    36    35    1
    34   115   117    1
    35   104   105    2
    36    18    19    2
    37    18    17    1
    38    20    22    1
    39    20    21    1
    40    20    17    1
    41   111   112    1
    42    34    35    1
    43    34    31    1
    44    16    17    1
    45    21    23    1
    46    33    32    2
    47    32    31    1
    48   112   113    2
    49    31    30    1
    50   126   124   ar
    51   124   125   ar
    52   124   123    1
    53   123   122    1
    54   122   119    1
    55   118   119    1
    56   132   133    1
    57   132   131    1
    58    56    55    1
    59    76    75    2
    60   119   120    1
    61   133   134    1
    62    91    90    1
    63    46    48   ar
    64    46    44   ar
    65   127   120   am
    66   127   128    1
    67   131   128    1
    68    48    49   ar
    69    57    55    1
    70    75    77   am
    71    75    74    1
    72    55    54    1
    73   120   121    2
    74    92    90    1
    75    43    44    1
    76    43    40    1
    77    90    89    1
    78   128   129    1
    79    44    45   ar
    80    41    40    1
    81    41    42    2
    82    54    51    1
    83    49    47   ar
    84    39    40    1
    85    89    86    1
    86    84    82    1
    87    74    73    1
    88    73    70    1
    89   129   130    2
    90    51    50    1
    91    51    52    1
    92    45    47   ar
    93    53    52    2
    94    72    71    2
    95    86    87    1
    96    86    85    1
    97    82    83    1
    98    82    79    1
    99    52    58   am
   100    88    87    2
   101    79    78    1
   102    79    80    1
   103    71    78   am
   104    71    70    1
   105    70    69    1
   106    87    93   am
   107    66    68   ar
   108    66    64   ar
   109    98    99    1
   110    98    97    1
   111    93    94    1
   112   101    99   ar
   113    81    80    2
   114    58    59    1
   115    94    97    1
   116    94    95    1
   117    68    67   ar
   118    64    63   ar
   119    99   100   ar
   120    59    60    1
   121    59    62    1
   122    95    96    2
   123    67    65   ar
   124    63    65   ar
   125    63    62    1
   126    60    61    2
