@<TRIPOS>MOLECULE
tmp/1x76B01.pdb
 156 145 0 0 0
SMALL
GASTEIGER

@<TRIPOS>ATOM
      1  N         31.7350   24.2360    4.7480 N.3    33  MET33      -0.1245
      2  CA        31.9020   25.5460    5.3560 C.3    33  MET33       0.1570
      3  C         31.8880   26.6110    4.2780 C.2    33  MET33       0.2261
      4  O         31.5070   27.7560    4.5210 O.2    33  MET33      -0.2867
      5  CB        33.2230   25.6040    6.1260 C.3    33  MET33       0.0387
      6  CG        33.2350   24.7550    7.3820 C.3    33  MET33       0.0595
      7  SD        31.9250   25.2520    8.5350 S.3    33  MET33      -0.1393
      8  CE        30.6590   24.0570    8.1200 C.3    33  MET33       0.0692
      9  N         28.2090   27.0630    3.4970 N.3    36  LEU36      -0.1231
     10  CA        27.5170   27.7520    4.5780 C.3    36  LEU36       0.1693
     11  C         27.8750   29.2270    4.6540 C.2    36  LEU36       0.2592
     12  O         26.9970   30.0690    4.8510 O.2    36  LEU36      -0.2718
     13  CB        27.8150   27.0880    5.9220 C.3    36  LEU36       0.0284
     14  CG        27.1980   25.7030    6.1270 C.3    36  LEU36       0.0019
     15  CD1       27.4410   25.2440    7.5600 C.3    36  LEU36       0.0001
     16  CD2       25.7050   25.7610    5.8380 C.3    36  LEU36       0.0001
     17  N         29.1570   29.5460    4.4920 N.am   37  THR37      -0.1953
     18  CA        29.5820   30.9390    4.5590 C.3    37  THR37       0.1897
     19  C         29.1270   31.7110    3.3280 C.2    37  THR37       0.2313
     20  O         28.8080   32.9000    3.4180 O.2    37  THR37      -0.2863
     21  CB        31.1070   31.0570    4.7270 C.3    37  THR37       0.1794
     22  OG1       31.7730   30.4120    3.6350 O.3    37  THR37      -0.2208
     23  CG2       31.5350   30.4030    6.0280 C.3    37  THR37       0.0378
     24  N         26.3720   31.0950    1.6600 N.3    39  LEU39      -0.1231
     25  CA        24.9320   31.3050    1.8310 C.3    39  LEU39       0.1693
     26  C         24.6710   32.4600    2.7970 C.2    39  LEU39       0.2591
     27  O         23.8630   33.3500    2.5220 O.2    39  LEU39      -0.2718
     28  CB        24.2660   30.0350    2.3760 C.3    39  LEU39       0.0284
     29  CG        22.7590   30.1530    2.6240 C.3    39  LEU39       0.0019
     30  CD1       22.0680   30.4710    1.3120 C.3    39  LEU39       0.0001
     31  CD2       22.2000   28.8690    3.2150 C.3    39  LEU39       0.0001
     32  N         25.3650   32.4270    3.9320 N.am   40  ALA40      -0.1980
     33  CA        25.2380   33.4460    4.9620 C.3    40  ALA40       0.1597
     34  C         25.5210   34.8450    4.4270 C.2    40  ALA40       0.2287
     35  O         24.8010   35.7870    4.7370 O.2    40  ALA40      -0.2864
     36  CB        26.1790   33.1320    6.1220 C.3    40  ALA40       0.0319
     37  N         22.6120   35.9100    2.2370 N.3    43  GLU43      -0.1245
     38  CA        21.4190   36.1080    3.0460 C.3    43  GLU43       0.1567
     39  C         21.5660   37.3610    3.8840 C.2    43  GLU43       0.2260
     40  O         20.5840   38.0570    4.1450 O.2    43  GLU43      -0.2867
     41  CB        21.1640   34.9040    3.9540 C.3    43  GLU43       0.0388
     42  CG        20.5890   33.7030    3.2260 C.3    43  GLU43       0.1160
     43  CD        20.1530   32.6130    4.1790 C.2    43  GLU43       0.3649
     44  OE1       21.0280   31.9060    4.7200 O.co2  43  GLU43      -0.2457
     45  OE2       18.9340   32.4710    4.3970 O.co2  43  GLU43      -0.2457
     46  N         23.0190   36.0910   13.2640 N.3    74  MET74      -0.1245
     47  CA        23.0250   34.6310   13.2140 C.3    74  MET74       0.1570
     48  C         21.7100   34.0480   13.7280 C.2    74  MET74       0.2261
     49  O         21.2380   33.0320   13.2260 O.2    74  MET74      -0.2867
     50  CB        24.2040   34.0620   14.0120 C.3    74  MET74       0.0387
     51  CG        24.3210   32.5400   13.9410 C.3    74  MET74       0.0595
     52  SD        24.5870   31.8700   12.2680 S.3    74  MET74      -0.1393
     53  CE        26.3830   31.9180   12.1350 C.3    74  MET74       0.0692
     54  N         19.3010   34.3370   10.8670 N.3    77  LEU77      -0.1231
     55  CA        19.6020   33.3280    9.8560 C.3    77  LEU77       0.1693
     56  C         19.1070   31.9440   10.2690 C.2    77  LEU77       0.2591
     57  O         18.5470   31.2080    9.4590 O.2    77  LEU77      -0.2718
     58  CB        21.1050   33.2370    9.6040 C.3    77  LEU77       0.0284
     59  CG        21.8210   34.4360    8.9800 C.3    77  LEU77       0.0019
     60  CD1       23.2940   34.0690    8.7620 C.3    77  LEU77       0.0001
     61  CD2       21.1570   34.8170    7.6560 C.3    77  LEU77       0.0001
     62  N         19.3190   31.5850   11.5300 N.am   78  MET78      -0.1979
     63  CA        18.9010   30.2740   12.0010 C.3    78  MET78       0.1605
     64  C         17.3980   30.1380   12.1880 C.2    78  MET78       0.2287
     65  O         16.8510   29.0520   12.0280 O.2    78  MET78      -0.2864
     66  CB        19.6370   29.9210   13.2900 C.3    78  MET78       0.0413
     67  CG        21.1080   29.6020   13.0620 C.3    78  MET78       0.0598
     68  SD        21.9590   29.3280   14.6150 S.3    78  MET78      -0.1393
     69  CE        21.3480   30.7310   15.5150 C.3    78  MET78       0.0692
     70  N         16.2950   29.3760    8.9150 N.3    81  LEU81      -0.1245
     71  CA        16.6740   28.0000    8.6190 C.3    81  LEU81       0.1561
     72  C         15.6650   27.0260    9.2320 C.2    81  LEU81       0.2260
     73  O         15.1740   26.1260    8.5580 O.2    81  LEU81      -0.2867
     74  CB        18.0630   27.7060    9.1860 C.3    81  LEU81       0.0270
     75  CG        18.4800   26.2340    9.2690 C.3    81  LEU81       0.0019
     76  CD1       18.5140   25.6200    7.8750 C.3    81  LEU81       0.0001
     77  CD2       19.8510   26.1330    9.9340 C.3    81  LEU81       0.0001
     78  N         12.3210   26.9630    7.4460 N.3    84  ARG84      -0.1245
     79  CA        12.4180   26.2600    6.1660 C.3    84  ARG84       0.1563
     80  C         12.4830   24.7390    6.3330 C.2    84  ARG84       0.2260
     81  O         12.1520   23.9920    5.4030 O.2    84  ARG84      -0.2867
     82  CB        13.6510   26.7360    5.3780 C.3    84  ARG84       0.0307
     83  CG        13.5770   28.1890    4.9050 C.3    84  ARG84       0.0489
     84  CD        14.6370   28.5230    3.8600 C.3    84  ARG84       0.2205
     85  NE        16.0160   28.3700    4.3320 N.pl3  84  ARG84      -0.0865
     86  CZ        16.6620   29.2580    5.0840 C.cat  84  ARG84       0.5346
     87  NH1       16.0620   30.3730    5.4640 N.pl3  84  ARG84       0.1354
     88  NH2       17.9190   29.0370    5.4460 N.pl3  84  ARG84       0.1354
     89  N         18.9610   24.5150    4.4290 N.3    94  PHE94      -0.1241
     90  CA        19.7040   25.7670    4.3850 C.3    94  PHE94       0.1605
     91  C         19.2700   26.5430    3.1490 C.2    94  PHE94       0.2264
     92  O         19.1970   27.7690    3.1720 O.2    94  PHE94      -0.2867
     93  CB        21.2110   25.5040    4.3350 C.3    94  PHE94       0.0534
     94  CG        21.7820   25.0230    5.6320 C.ar   94  PHE94      -0.0203
     95  CD1       21.7700   23.6700    5.9560 C.ar   94  PHE94      -0.0042
     96  CD2       22.3160   25.9300    6.5450 C.ar   94  PHE94      -0.0042
     97  CE1       22.2880   23.2210    7.1760 C.ar   94  PHE94      -0.0003
     98  CE2       22.8330   25.4960    7.7640 C.ar   94  PHE94      -0.0003
     99  CZ        22.8210   24.1370    8.0810 C.ar   94  PHE94      -0.0000
    100  N         30.3800   20.6960   14.3060 N.3   111  ILE111     -0.1245
    101  CA        29.1710   21.3250   13.7830 C.3   111  ILE111      0.1561
    102  C         27.9480   20.4450   14.0270 C.2   111  ILE111      0.2260
    103  O         26.8150   20.9320   14.0720 O.2   111  ILE111     -0.2867
    104  CB        29.2890   21.6200   12.2660 C.3   111  ILE111      0.0252
    105  CG1       28.2880   22.7080   11.8750 C.3   111  ILE111      0.0019
    106  CG2       29.0100   20.3620   11.4600 C.3   111  ILE111      0.0019
    107  CD1       28.4210   23.1820   10.4510 C.3   111  ILE111      0.0001
    108  N         25.8260   21.6720   16.8320 N.3   114  ILE114     -0.1231
    109  CA        24.9710   22.7870   16.4440 C.3   114  ILE114      0.1692
    110  C         23.7930   22.2870   15.6140 C.2   114  ILE114      0.2592
    111  O         22.6630   22.7400   15.7930 O.2   114  ILE114     -0.2718
    112  CB        25.7660   23.8270   15.6270 C.3   114  ILE114      0.0266
    113  CG1       27.0670   24.1680   16.3600 C.3   114  ILE114      0.0019
    114  CG2       24.9320   25.0900   15.4310 C.3   114  ILE114      0.0020
    115  CD1       28.0070   25.0320   15.5650 C.3   114  ILE114      0.0001
    116  N         24.0640   21.3530   14.7080 N.am  115  PHE115     -0.1976
    117  CA        23.0220   20.7840   13.8650 C.3   115  PHE115      0.1639
    118  C         21.9650   20.1010   14.7230 C.2   115  PHE115      0.2290
    119  O         20.7770   20.1420   14.4030 O.2   115  PHE115     -0.2864
    120  CB        23.6180   19.7690   12.8930 C.3   115  PHE115      0.0560
    121  CG        24.2060   20.3820   11.6540 C.ar  115  PHE115     -0.0200
    122  CD1       24.6710   21.6920   11.6540 C.ar  115  PHE115     -0.0042
    123  CD2       24.3060   19.6370   10.4810 C.ar  115  PHE115     -0.0042
    124  CE1       25.2240   22.2470   10.5090 C.ar  115  PHE115     -0.0003
    125  CE2       24.8600   20.1870    9.3310 C.ar  115  PHE115     -0.0003
    126  CZ        25.3190   21.4930    9.3460 C.ar  115  PHE115     -0.0000
    127  N         19.7560   22.6470   16.5100 N.3   118  LEU118     -0.1245
    128  CA        18.9440   23.3350   15.5090 C.3   118  LEU118      0.1561
    129  C         17.7770   22.4310   15.1280 C.2   118  LEU118      0.2260
    130  O         16.6490   22.8900   14.9530 O.2   118  LEU118     -0.2867
    131  CB        19.7730   23.6740   14.2640 C.3   118  LEU118      0.0270
    132  CG        20.7050   24.8900   14.3640 C.3   118  LEU118      0.0019
    133  CD1       21.6180   24.9680   13.1400 C.3   118  LEU118      0.0001
    134  CD2       19.8630   26.1590   14.4960 C.3   118  LEU118      0.0001
    135  N         26.8870   28.8050   17.1540 N.3   200  GLY200     -0.1225
    136  CA        27.1190   28.9530   15.7290 C.3   200  GLY200      0.1811
    137  C         28.2180   29.9570   15.4120 C.2   200  GLY200      0.2280
    138  O         29.1110   29.6680   14.6250 O.2   200  GLY200     -0.2866
    139  N         31.5710   28.7310   16.6260 N.3   203  HIS203     -0.1226
    140  CA        32.0510   27.7210   15.6920 C.3   203  HIS203      0.1752
    141  C         32.6170   28.3400   14.4100 C.2   203  HIS203      0.2595
    142  O         33.6210   27.8680   13.8790 O.2   203  HIS203     -0.2718
    143  CB        30.9120   26.7610   15.3520 C.3   203  HIS203      0.0759
    144  CG        31.3060   25.6480   14.4310 C.ar  203  HIS203      0.0818
    145  ND1       31.3120   25.7820   13.0600 N.ar  203  HIS203     -0.2268
    146  CD2       31.7290   24.3870   14.6870 C.ar  203  HIS203      0.1154
    147  CE1       31.7220   24.6540   12.5100 C.ar  203  HIS203      0.1986
    148  NE2       31.9810   23.7910   13.4750 N.ar  203  HIS203     -0.2212
    149  N         31.9740   29.3910   13.9130 N.am  204  LEU204     -0.1980
    150  CA        32.4320   30.0520   12.6940 C.3   204  LEU204      0.1596
    151  C         33.7890   30.7290   12.9040 C.2   204  LEU204      0.2287
    152  O         34.6590   30.6800   12.0300 O.2   204  LEU204     -0.2864
    153  CB        31.4010   31.0860   12.2360 C.3   204  LEU204      0.0297
    154  CG        31.7590   31.9430   11.0220 C.3   204  LEU204      0.0022
    155  CD1       32.1290   31.0570    9.8320 C.3   204  LEU204      0.0001
    156  CD2       30.5770   32.8490   10.6910 C.3   204  LEU204      0.0001
@<TRIPOS>BOND
     1    30    29    1
     2    24    25    1
     3    25    28    1
     4    25    26    1
     5    37    38    1
     6    28    29    1
     7    27    26    2
     8    29    31    1
     9    26    32   am
    10    38    39    1
    11    38    41    1
    12    91    92    2
    13    91    90    1
    14    42    41    1
    15    42    43    1
    16    19    20    2
    17    19    18    1
    18     9    10    1
    19    22    21    1
    20    84    85    1
    21    84    83    1
    22    39    40    2
    23    32    33    1
    24    43    45   ar
    25    43    44   ar
    26     3     4    2
    27     3     2    1
    28    85    86    2
    29    93    90    1
    30    93    94    1
    31    90    89    1
    32    34    35    2
    33    34    33    1
    34    17    18    1
    35    17    11   am
    36    18    21    1
    37    10    11    1
    38    10    13    1
    39    11    12    2
    40    21    23    1
    41     1     2    1
    42    83    82    1
    43    33    36    1
    44    86    88    1
    45    86    87    1
    46     2     5    1
    47    82    79    1
    48    81    80    2
    49    94    95   ar
    50    94    96   ar
    51    16    14    1
    52    13    14    1
    53    95    97   ar
    54     5     6    1
    55    14    15    1
    56    79    80    1
    57    79    78    1
    58    96    98   ar
    59    97    99   ar
    60     6     7    1
    61    61    59    1
    62    98    99   ar
    63    76    75    1
    64     8     7    1
    65    73    72    2
    66    71    70    1
    67    71    74    1
    68    71    72    1
    69    60    59    1
    70    59    58    1
    71    74    75    1
    72    75    77    1
    73   125   126   ar
    74   125   123   ar
    75   126   124   ar
    76    57    56    2
    77    58    55    1
    78   155   154    1
    79    55    56    1
    80    55    54    1
    81    56    62   am
    82   107   105    1
    83   123   121   ar
    84   124   122   ar
    85   156   154    1
    86   154   153    1
    87   106   104    1
    88    62    63    1
    89   122   121   ar
    90   121   120    1
    91   105   104    1
    92    63    64    1
    93    63    66    1
    94    65    64    2
    95   152   151    2
    96    53    52    1
    97   153   150    1
    98   104   101    1
    99    52    51    1
   100   147   145   ar
   101   147   148   ar
   102   150   151    1
   103   150   149    1
   104   120   117    1
   105   145   144   ar
   106    67    66    1
   107    67    68    1
   108   133   132    1
   109    47    46    1
   110    47    48    1
   111    47    50    1
   112    49    48    2
   113   148   146   ar
   114   101   102    1
   115   101   100    1
   116   117   116    1
   117   117   118    1
   118   142   141    2
   119   149   141   am
   120    51    50    1
   121   102   103    2
   122   131   132    1
   123   131   128    1
   124   132   134    1
   125   119   118    2
   126   141   140    1
   127   144   146   ar
   128   144   143    1
   129    68    69    1
   130   138   137    2
   131   116   110   am
   132   130   129    2
   133   129   128    1
   134   143   140    1
   135   137   136    1
   136   114   112    1
   137   128   127    1
   138   115   113    1
   139   110   111    2
   140   110   109    1
   141   112   113    1
   142   112   109    1
   143   140   139    1
   144   136   135    1
   145   109   108    1
