@<TRIPOS>MOLECULE
tmp/1x77A00.pdb
 121 120 0 0 0
SMALL
GASTEIGER

@<TRIPOS>ATOM
      1  N         10.9600   25.6910    8.1120 N.3     9  SER9       -0.1217
      2  CA        10.3910   27.0120    7.8660 C.3     9  SER9        0.1889
      3  C          9.0230   27.1720    8.5240 C.2     9  SER9        0.2288
      4  O          8.1670   26.2900    8.4340 O.2     9  SER9       -0.2866
      5  CB        10.2630   27.2320    6.3600 C.3     9  SER9        0.2089
      6  OG         9.6580   28.4720    6.0780 O.3     9  SER9       -0.2183
      7  N          7.0020   30.0110    7.9380 N.3    11  ARG11      -0.1245
      8  CA         6.0860   30.8460    7.1680 C.3    11  ARG11       0.1563
      9  C          4.9970   29.9960    6.5110 C.2    11  ARG11       0.2260
     10  O          5.2300   28.8500    6.1350 O.2    11  ARG11      -0.2867
     11  CB         6.8480   31.6650    6.1180 C.3    11  ARG11       0.0307
     12  CG         7.1780   30.9480    4.8290 C.3    11  ARG11       0.0489
     13  CD         8.1450   31.8030    4.0210 C.3    11  ARG11       0.2205
     14  NE         8.4270   31.2400    2.7040 N.pl3  11  ARG11      -0.0865
     15  CZ         7.5860   31.2880    1.6810 C.cat  11  ARG11       0.5346
     16  NH1        6.4110   31.8800    1.8230 N.pl3  11  ARG11       0.1354
     17  NH2        7.9090   30.7370    0.5220 N.pl3  11  ARG11       0.1354
     18  N          5.7260   28.5010    3.0620 N.3    14  SER14      -0.1202
     19  CA         6.9580   27.7160    3.0370 C.3    14  SER14       0.2020
     20  C          6.9980   26.6650    1.9200 C.2    14  SER14       0.2619
     21  O          6.1440   25.7800    1.8370 O.2    14  SER14      -0.2717
     22  CB         7.1570   27.0340    4.4090 C.3    14  SER14       0.2103
     23  OG         8.3420   26.2570    4.4630 O.3    14  SER14      -0.2182
     24  N          7.9970   26.7760    1.0550 N.am   15  TYR15      -0.1961
     25  CA         8.1540   25.8310   -0.0330 C.3    15  TYR15       0.1771
     26  C          8.6660   24.5000    0.5020 C.2    15  TYR15       0.2619
     27  O          8.4380   23.4500   -0.1020 O.2    15  TYR15      -0.2715
     28  CB         9.1120   26.3850   -1.0900 C.3    15  TYR15       0.0574
     29  CG         8.6250   27.6530   -1.7540 C.ar   15  TYR15      -0.0198
     30  CD1        7.2860   27.8000   -2.1330 C.ar   15  TYR15      -0.0009
     31  CD2        9.5160   28.6800   -2.0710 C.ar   15  TYR15      -0.0009
     32  CE1        6.8530   28.9320   -2.8190 C.ar   15  TYR15       0.0417
     33  CE2        9.0960   29.8110   -2.7550 C.ar   15  TYR15       0.0417
     34  CZ         7.7660   29.9310   -3.1310 C.ar   15  TYR15       0.1957
     35  OH         7.3550   31.0230   -3.8580 O.3    15  TYR15      -0.2866
     36  N          9.3550   24.5310    1.6370 N.am   16  ASN16      -0.1972
     37  CA         9.8590   23.2950    2.2280 C.3    16  ASN16       0.1688
     38  C          8.6860   22.5710    2.8580 C.2    16  ASN16       0.2292
     39  O          8.6300   21.3370    2.8580 O.2    16  ASN16      -0.2864
     40  CB        10.9470   23.5770    3.2710 C.3    16  ASN16       0.1181
     41  CG        12.3130   23.7760    2.6400 C.2    16  ASN16       0.2629
     42  OD1       12.9820   22.8120    2.2680 O.2    16  ASN16      -0.2716
     43  ND2       12.7200   25.0310    2.4940 N.am   16  ASN16      -0.0877
     44  N         15.4500   24.6360    4.7240 N.3    75  PRO75      -0.2102
     45  CA        15.8200   25.7250    3.8230 C.3    75  PRO75       0.1504
     46  C         17.2640   26.0780    4.1790 C.2    75  PRO75       0.2576
     47  O         17.7750   25.6320    5.2080 O.2    75  PRO75      -0.2718
     48  CB        14.8390   26.8260    4.1940 C.3    75  PRO75       0.0282
     49  CG        14.5920   26.5820    5.6350 C.3    75  PRO75       0.0208
     50  CD        14.4460   25.0830    5.7040 C.3    75  PRO75       0.0893
     51  N         17.9500   26.8450    3.3470 N.am   76  GLU76      -0.1966
     52  CA        19.3100   27.2070    3.6880 C.3    76  GLU76       0.1733
     53  C         19.4370   28.7080    3.8740 C.2    76  GLU76       0.2616
     54  O         19.1880   29.4750    2.9440 O.2    76  GLU76      -0.2715
     55  CB        20.2890   26.7480    2.6160 C.3    76  GLU76       0.0429
     56  CG        21.6730   27.2680    2.8860 C.3    76  GLU76       0.1163
     57  CD        22.6980   26.6700    1.9810 C.2    76  GLU76       0.3649
     58  OE1       22.7150   25.4240    1.8700 O.co2  76  GLU76      -0.2457
     59  OE2       23.4880   27.4520    1.3950 O.co2  76  GLU76      -0.2457
     60  N         19.8160   29.1240    5.0780 N.am   77  TYR77      -0.1960
     61  CA        19.9900   30.5420    5.3770 C.3    77  TYR77       0.1771
     62  C         21.4490   30.8010    5.6800 C.2    77  TYR77       0.2619
     63  O         22.0530   30.1020    6.4960 O.2    77  TYR77      -0.2715
     64  CB        19.2130   30.9690    6.6220 C.3    77  TYR77       0.0574
     65  CG        17.7220   30.7490    6.6320 C.ar   77  TYR77      -0.0198
     66  CD1       17.0030   30.5460    5.4600 C.ar   77  TYR77      -0.0009
     67  CD2       17.0190   30.8110    7.8360 C.ar   77  TYR77      -0.0009
     68  CE1       15.6160   30.4180    5.4900 C.ar   77  TYR77       0.0417
     69  CE2       15.6430   30.6840    7.8800 C.ar   77  TYR77       0.0417
     70  CZ        14.9480   30.4920    6.7110 C.ar   77  TYR77       0.1957
     71  OH        13.5800   30.4050    6.7720 O.3    77  TYR77      -0.2866
     72  N         22.0110   31.8120    5.0320 N.am   78  ASN78      -0.1972
     73  CA        23.3950   32.1990    5.2640 C.3    78  ASN78       0.1688
     74  C         24.4020   31.0640    5.4200 C.2    78  ASN78       0.2292
     75  O         24.9890   30.8720    6.4910 O.2    78  ASN78      -0.2864
     76  CB        23.4580   33.1040    6.4930 C.3    78  ASN78       0.1181
     77  CG        22.4670   34.2400    6.4240 C.2    78  ASN78       0.2629
     78  OD1       22.4030   34.9640    5.4320 O.2    78  ASN78      -0.2716
     79  ND2       21.6830   34.4050    7.4770 N.am   78  ASN78      -0.0877
     80  N         14.4610   23.1150    0.0370 N.3   110  ALA110     -0.1231
     81  CA        13.8440   24.0080   -0.9250 C.3   110  ALA110      0.1694
     82  C         14.4370   25.3950   -0.7840 C.2   110  ALA110      0.2593
     83  O         14.5510   25.9220    0.3240 O.2   110  ALA110     -0.2718
     84  CB        12.3310   24.0510   -0.7060 C.3   110  ALA110      0.0304
     85  N         14.8250   25.9800   -1.9130 N.am  111  SER111     -0.1938
     86  CA        15.4100   27.3140   -1.9140 C.3   111  SER111      0.2055
     87  C         15.1230   28.0510   -3.2090 C.2   111  SER111      0.2643
     88  O         14.9400   27.4460   -4.2660 O.2   111  SER111     -0.2714
     89  CB        16.9270   27.2370   -1.7050 C.3   111  SER111      0.2130
     90  OG        17.5480   26.5450   -2.7730 O.3   111  SER111     -0.2179
     91  N         15.0860   29.3740   -3.1050 N.am  112  ALA112     -0.1963
     92  CA        14.8480   30.2290   -4.2460 C.3   112  ALA112      0.1728
     93  C         16.2050   30.6150   -4.8090 C.2   112  ALA112      0.2617
     94  O         17.2270   30.5000   -4.1300 O.2   112  ALA112     -0.2715
     95  CB        14.0960   31.4670   -3.8110 C.3   112  ALA112      0.0334
     96  N         16.2090   31.0390   -6.0670 N.am  113  GLY113     -0.1940
     97  CA        17.4340   31.4790   -6.7010 C.3   113  GLY113      0.2014
     98  C         18.5090   30.4820   -7.0910 C.2   113  GLY113      0.2639
     99  O         18.2650   29.2920   -7.2710 O.2   113  GLY113     -0.2714
    100  N         19.7180   31.0340   -7.2200 N.am  114  ARG114     -0.1963
    101  CA        20.9570   30.3520   -7.6100 C.3   114  ARG114      0.1729
    102  C         21.1280   28.9060   -7.1380 C.2   114  ARG114      0.2616
    103  O         20.7140   27.9770   -7.8270 O.2   114  ARG114     -0.2715
    104  CB        22.1600   31.1990   -7.1430 C.3   114  ARG114      0.0348
    105  CG        23.4700   30.9270   -7.8870 C.3   114  ARG114      0.0492
    106  CD        23.4280   31.4720   -9.3210 C.3   114  ARG114      0.2205
    107  NE        24.4520   30.8660  -10.1740 N.pl3 114  ARG114     -0.0865
    108  CZ        24.4220   29.6060  -10.6070 C.cat 114  ARG114      0.5346
    109  NH1       23.4130   28.8080  -10.2760 N.pl3 114  ARG114      0.1354
    110  NH2       25.4090   29.1410  -11.3640 N.pl3 114  ARG114      0.1354
    111  N         21.7850   28.7250   -5.9920 N.am  115  PHE115     -0.1974
    112  CA        21.9990   27.3970   -5.4170 C.3   115  PHE115      0.1639
    113  C         20.9950   27.1980   -4.3030 C.2   115  PHE115      0.2290
    114  O         19.8330   27.6000   -4.4160 O.2   115  PHE115     -0.2864
    115  CB        23.4080   27.2550   -4.8270 C.3   115  PHE115      0.0560
    116  CG        24.4440   26.8050   -5.8150 C.ar  115  PHE115     -0.0200
    117  CD1       24.1880   25.7420   -6.6770 C.ar  115  PHE115     -0.0042
    118  CD2       25.6930   27.4200   -5.8570 C.ar  115  PHE115     -0.0042
    119  CE1       25.1620   25.2940   -7.5660 C.ar  115  PHE115     -0.0003
    120  CE2       26.6780   26.9830   -6.7410 C.ar  115  PHE115     -0.0003
    121  CZ        26.4140   25.9170   -7.5990 C.ar  115  PHE115     -0.0000
@<TRIPOS>BOND
     1   110   108    1
     2   108   109    1
     3   108   107    2
     4   107   106    1
     5   106   105    1
     6   105   104    1
     7   103   102    2
     8   101   100    1
     9   101   104    1
    10   101   102    1
    11   121   119   ar
    12   121   120   ar
    13   119   117   ar
    14    99    98    2
    15   100    98   am
    16   102   111   am
    17    98    97    1
    18   120   118   ar
    19    97    96    1
    20   117   116   ar
    21    96    93   am
    22   111   112    1
    23   118   116   ar
    24   116   115    1
    25   112   115    1
    26   112   113    1
    27    93    92    1
    28    93    94    2
    29   114   113    2
    30    88    87    2
    31    92    95    1
    32    92    91    1
    33    35    34    1
    34    87    91   am
    35    87    86    1
    36    34    32   ar
    37    34    33   ar
    38    32    30   ar
    39    90    89    1
    40    33    31   ar
    41    30    29   ar
    42    31    29   ar
    43    86    85    1
    44    86    89    1
    45    85    82   am
    46    29    28    1
    47    28    25    1
    48    81    82    1
    49    81    84    1
    50    81    80    1
    51    82    83    2
    52    27    26    2
    53    25    26    1
    54    25    24    1
    55    26    36   am
    56    17    15    1
    57    24    20   am
    58    59    57   ar
    59    36    37    1
    60    15    16    1
    61    15    14    2
    62    21    20    2
    63    58    57   ar
    64    20    19    1
    65    57    56    1
    66    37    38    1
    67    37    40    1
    68    42    41    2
    69    43    41   am
    70    55    56    1
    71    55    52    1
    72    41    40    1
    73    14    13    1
    74    38    39    2
    75    54    53    2
    76    19    18    1
    77    19    22    1
    78    51    52    1
    79    51    46   am
    80    52    53    1
    81    45    46    1
    82    45    48    1
    83    45    44    1
    84    53    60   am
    85    13    12    1
    86    46    47    2
    87    48    49    1
    88    22    23    1
    89    44    50    1
    90    12    11    1
    91    72    73    1
    92    72    62   am
    93    60    61    1
    94    73    74    1
    95    73    76    1
    96    61    62    1
    97    61    64    1
    98    74    75    2
    99    78    77    2
   100    66    68   ar
   101    66    65   ar
   102    68    70   ar
   103    49    50    1
   104    62    63    2
   105     6     5    1
   106    11     8    1
   107    10     9    2
   108     5     2    1
   109    77    76    1
   110    77    79   am
   111     9     8    1
   112    64    65    1
   113    65    67   ar
   114    70    71    1
   115    70    69   ar
   116     8     7    1
   117    67    69   ar
   118     2     1    1
   119     2     3    1
   120     4     3    2
