@<TRIPOS>MOLECULE
tmp/1x78B01.pdb
 164 152 0 0 0
SMALL
GASTEIGER

@<TRIPOS>ATOM
      1  N         31.5200   23.9040    4.7630 N.3    33  MET33      -0.1245
      2  CA        31.7000   25.2230    5.3660 C.3    33  MET33       0.1570
      3  C         31.6350   26.2930    4.2990 C.2    33  MET33       0.2261
      4  O         31.2210   27.4200    4.5560 O.2    33  MET33      -0.2867
      5  CB        33.0590   25.3190    6.0720 C.3    33  MET33       0.0387
      6  CG        33.1320   24.5840    7.3910 C.3    33  MET33       0.0595
      7  SD        31.8560   25.1540    8.5260 S.3    33  MET33      -0.1393
      8  CE        30.5300   24.0110    8.1150 C.3    33  MET33       0.0692
      9  N         27.9130   26.8560    3.4810 N.3    36  LEU36      -0.1231
     10  CA        27.2400   27.5190    4.5850 C.3    36  LEU36       0.1693
     11  C         27.6250   28.9870    4.6590 C.2    36  LEU36       0.2592
     12  O         26.7670   29.8400    4.8710 O.2    36  LEU36      -0.2718
     13  CB        27.5690   26.8290    5.9080 C.3    36  LEU36       0.0284
     14  CG        26.9500   25.4460    6.1320 C.3    36  LEU36       0.0019
     15  CD1       27.3340   24.9410    7.5190 C.3    36  LEU36       0.0001
     16  CD2       25.4440   25.5250    6.0050 C.3    36  LEU36       0.0001
     17  N         28.9080   29.2810    4.4620 N.am   37  THR37      -0.1953
     18  CA        29.3760   30.6580    4.5280 C.3    37  THR37       0.1897
     19  C         28.9040   31.4450    3.3190 C.2    37  THR37       0.2313
     20  O         28.4960   32.5990    3.4490 O.2    37  THR37      -0.2863
     21  CB        30.9030   30.7360    4.6320 C.3    37  THR37       0.1794
     22  OG1       31.4930   29.8580    3.6710 O.3    37  THR37      -0.2208
     23  CG2       31.3600   30.3310    6.0130 C.3    37  THR37       0.0378
     24  N         26.2470   30.8060    1.5930 N.3    39  LEU39      -0.1231
     25  CA        24.8010   30.9580    1.7510 C.3    39  LEU39       0.1693
     26  C         24.4630   32.0790    2.7300 C.2    39  LEU39       0.2591
     27  O         23.6050   32.9260    2.4560 O.2    39  LEU39      -0.2718
     28  CB        24.1720   29.6480    2.2410 C.3    39  LEU39       0.0284
     29  CG        22.7020   29.7810    2.6450 C.3    39  LEU39       0.0019
     30  CD1       21.8830   30.2600    1.4400 C.3    39  LEU39       0.0001
     31  CD2       22.1840   28.4520    3.1740 C.3    39  LEU39       0.0001
     32  N         25.1470   32.0670    3.8700 N.am   40  ALA40      -0.1980
     33  CA        24.9680   33.0660    4.9140 C.3    40  ALA40       0.1597
     34  C         25.2830   34.4600    4.3900 C.2    40  ALA40       0.2287
     35  O         24.5630   35.4130    4.6730 O.2    40  ALA40      -0.2864
     36  CB        25.8710   32.7390    6.1050 C.3    40  ALA40       0.0319
     37  N         22.3900   35.6250    2.2660 N.3    43  GLU43      -0.1245
     38  CA        21.1910   35.9050    3.0370 C.3    43  GLU43       0.1567
     39  C         21.3640   37.1360    3.9070 C.2    43  GLU43       0.2260
     40  O         20.3940   37.8360    4.1940 O.2    43  GLU43      -0.2867
     41  CB        20.8020   34.7020    3.8930 C.3    43  GLU43       0.0388
     42  CG        20.2920   33.5190    3.0870 C.3    43  GLU43       0.1160
     43  CD        19.8290   32.3740    3.9700 C.2    43  GLU43       0.3649
     44  OE1       20.6640   31.7930    4.7030 O.co2  43  GLU43      -0.2457
     45  OE2       18.6220   32.0530    3.9270 O.co2  43  GLU43      -0.2457
     46  N         22.7990   35.8490   13.2650 N.3    74  MET74      -0.1245
     47  CA        22.7830   34.3850   13.1820 C.3    74  MET74       0.1570
     48  C         21.4670   33.7950   13.7020 C.2    74  MET74       0.2261
     49  O         20.9920   32.7750   13.1940 O.2    74  MET74      -0.2867
     50  CB        23.9750   33.7890   13.9430 C.3    74  MET74       0.0387
     51  CG        24.0330   32.2720   13.9370 C.3    74  MET74       0.0595
     52  SD        24.2380   31.4730   12.3120 S.3    74  MET74      -0.1393
     53  CE        26.0010   31.6690   12.0760 C.3    74  MET74       0.0692
     54  N         19.1100   34.1420   10.9140 N.3    77  LEU77      -0.1231
     55  CA        19.3860   33.1390    9.9020 C.3    77  LEU77       0.1693
     56  C         18.8410   31.7910   10.3440 C.2    77  LEU77       0.2591
     57  O         18.1560   31.1130    9.5780 O.2    77  LEU77      -0.2718
     58  CB        20.8830   33.0170    9.6500 C.3    77  LEU77       0.0284
     59  CG        21.5510   34.1760    8.9120 C.3    77  LEU77       0.0019
     60  CD1       23.0550   33.9040    8.8010 C.3    77  LEU77       0.0001
     61  CD2       20.9160   34.3460    7.5280 C.3    77  LEU77       0.0001
     62  N         19.1340   31.4160   11.5860 N.am   78  MET78      -0.1979
     63  CA        18.6860   30.1370   12.1240 C.3    78  MET78       0.1605
     64  C         17.1770   30.0200   12.2770 C.2    78  MET78       0.2287
     65  O         16.6210   28.9370   12.1200 O.2    78  MET78      -0.2864
     66  CB        19.3900   29.8470   13.4590 C.3    78  MET78       0.0413
     67  CG        20.8620   29.4850   13.2690 C.3    78  MET78       0.0598
     68  SD        21.7770   29.0930   14.7810 S.3    78  MET78      -0.1393
     69  CE        20.8800   30.0330   15.9450 C.3    78  MET78       0.0692
     70  N         16.1050   29.1850    8.8580 N.3    81  LEU81      -0.1245
     71  CA        16.4280   27.7960    8.5450 C.3    81  LEU81       0.1561
     72  C         15.4000   26.8520    9.1580 C.2    81  LEU81       0.2260
     73  O         14.8940   25.9540    8.4860 O.2    81  LEU81      -0.2867
     74  CB        17.8180   27.4380    9.0810 C.3    81  LEU81       0.0270
     75  CG        18.1510   25.9410    9.1400 C.3    81  LEU81       0.0019
     76  CD1       18.3190   25.3920    7.7270 C.3    81  LEU81       0.0001
     77  CD2       19.4270   25.7220    9.9570 C.3    81  LEU81       0.0001
     78  N         12.0930   26.8550    7.3740 N.3    84  ARG84      -0.1245
     79  CA        12.2060   26.1490    6.0970 C.3    84  ARG84       0.1563
     80  C         12.2130   24.6380    6.2690 C.2    84  ARG84       0.2260
     81  O         11.7760   23.9040    5.3800 O.2    84  ARG84      -0.2867
     82  CB        13.4830   26.5610    5.3420 C.3    84  ARG84       0.0307
     83  CG        13.4720   27.9850    4.8000 C.3    84  ARG84       0.0489
     84  CD        14.5840   28.2430    3.7760 C.3    84  ARG84       0.2205
     85  NE        15.9480   28.2000    4.3160 N.pl3  84  ARG84      -0.0865
     86  CZ        16.5250   29.1910    4.9930 C.cat  84  ARG84       0.5346
     87  NH1       15.8610   30.3120    5.2200 N.pl3  84  ARG84       0.1354
     88  NH2       17.7690   29.0640    5.4400 N.pl3  84  ARG84       0.1354
     89  N         18.7270   24.2590    4.4080 N.3    94  PHE94      -0.1241
     90  CA        19.4430   25.5320    4.3540 C.3    94  PHE94       0.1605
     91  C         19.0060   26.3050    3.1210 C.2    94  PHE94       0.2264
     92  O         18.9250   27.5330    3.1420 O.2    94  PHE94      -0.2867
     93  CB        20.9590   25.3170    4.3380 C.3    94  PHE94       0.0534
     94  CG        21.5270   24.9260    5.6720 C.ar   94  PHE94      -0.0203
     95  CD1       21.5150   23.5950    6.0900 C.ar   94  PHE94      -0.0042
     96  CD2       22.0490   25.8950    6.5270 C.ar   94  PHE94      -0.0042
     97  CE1       22.0160   23.2340    7.3400 C.ar   94  PHE94      -0.0003
     98  CE2       22.5510   25.5500    7.7790 C.ar   94  PHE94      -0.0003
     99  CZ        22.5360   24.2140    8.1890 C.ar   94  PHE94      -0.0000
    100  N         30.1030   20.5430   14.4430 N.3   111  ILE111     -0.1245
    101  CA        28.8780   21.1520   13.9450 C.3   111  ILE111      0.1561
    102  C         27.6450   20.2730   14.1470 C.2   111  ILE111      0.2260
    103  O         26.5200   20.7700   14.1410 O.2   111  ILE111     -0.2867
    104  CB        29.0090   21.5330   12.4490 C.3   111  ILE111      0.0252
    105  CG1       28.2590   22.8420   12.1930 C.3   111  ILE111      0.0019
    106  CG2       28.4560   20.4230   11.5640 C.3   111  ILE111      0.0019
    107  CD1       28.3870   23.3620   10.7910 C.3   111  ILE111      0.0001
    108  N         25.5250   21.5800   16.9740 N.3   114  ILE114     -0.1231
    109  CA        24.6360   22.6700   16.5820 C.3   114  ILE114      0.1692
    110  C         23.4700   22.1450   15.7510 C.2   114  ILE114      0.2592
    111  O         22.3210   22.5310   15.9680 O.2   114  ILE114     -0.2718
    112  CB        25.3670   23.7430   15.7360 C.3   114  ILE114      0.0266
    113  CG1       26.6480   24.2120   16.4350 C.3   114  ILE114      0.0019
    114  CG2       24.4330   24.9180   15.4940 C.3   114  ILE114      0.0020
    115  CD1       27.7150   25.0720   15.7550 C.3   114  ILE114      0.0001
    116  N         23.7690   21.2740   14.7930 N.am  115  PHE115     -0.1976
    117  CA        22.7280   20.7010   13.9470 C.3   115  PHE115      0.1639
    118  C         21.6510   20.0590   14.7940 C.2   115  PHE115      0.2290
    119  O         20.4650   20.1630   14.4860 O.2   115  PHE115     -0.2864
    120  CB        23.3120   19.6460   13.0140 C.3   115  PHE115      0.0560
    121  CG        23.8750   20.2030   11.7410 C.ar  115  PHE115     -0.0200
    122  CD1       24.3020   21.5280   11.6670 C.ar  115  PHE115     -0.0042
    123  CD2       24.0100   19.3930   10.6210 C.ar  115  PHE115     -0.0042
    124  CE1       24.8550   22.0320   10.5010 C.ar  115  PHE115     -0.0003
    125  CE2       24.5650   19.8920    9.4480 C.ar  115  PHE115     -0.0003
    126  CZ        24.9890   21.2140    9.3900 C.ar  115  PHE115     -0.0000
    127  N         19.4180   22.5110   16.4620 N.3   118  LEU118     -0.1245
    128  CA        18.5970   23.1480   15.4360 C.3   118  LEU118      0.1561
    129  C         17.4240   22.2430   15.0940 C.2   118  LEU118      0.2260
    130  O         16.2850   22.7010   15.0030 O.2   118  LEU118     -0.2867
    131  CB        19.4180   23.4430   14.1760 C.3   118  LEU118      0.0270
    132  CG        20.4440   24.5740   14.3110 C.3   118  LEU118      0.0019
    133  CD1       21.3220   24.6370   13.0660 C.3   118  LEU118      0.0001
    134  CD2       19.7150   25.8980   14.5400 C.3   118  LEU118      0.0001
    135  N         26.7300   28.7010   17.1140 N.3   200  GLY200     -0.1225
    136  CA        26.9920   28.8340   15.6900 C.3   200  GLY200      0.1811
    137  C         28.0600   29.8670   15.3540 C.2   200  GLY200      0.2280
    138  O         28.9170   29.6320   14.5120 O.2   200  GLY200     -0.2866
    139  N         31.4410   28.5690   16.6660 N.3   203  HIS203     -0.1226
    140  CA        31.8780   27.5550   15.7130 C.3   203  HIS203      0.1752
    141  C         32.4460   28.1930   14.4450 C.2   203  HIS203      0.2595
    142  O         33.4820   27.7640   13.9310 O.2   203  HIS203     -0.2718
    143  CB        30.7040   26.6490   15.3490 C.3   203  HIS203      0.0759
    144  CG        31.0560   25.5700   14.3750 C.ar  203  HIS203      0.0818
    145  ND1       31.1440   25.7920   13.0180 N.ar  203  HIS203     -0.2268
    146  CD2       31.3850   24.2700   14.5650 C.ar  203  HIS203      0.1154
    147  CE1       31.5150   24.6780   12.4130 C.ar  203  HIS203      0.1986
    148  NE2       31.6680   23.7380   13.3290 N.ar  203  HIS203     -0.2212
    149  N         31.7730   29.2220   13.9430 N.am  204  LEU204     -0.1980
    150  CA        32.2300   29.9050   12.7360 C.3   204  LEU204      0.1596
    151  C         33.5730   30.6130   12.9360 C.2   204  LEU204      0.2287
    152  O         34.4610   30.5210   12.0870 O.2   204  LEU204     -0.2864
    153  CB        31.1820   30.9150   12.2720 C.3   204  LEU204      0.0297
    154  CG        31.5490   31.7410   11.0400 C.3   204  LEU204      0.0022
    155  CD1       31.9200   30.8230    9.8660 C.3   204  LEU204      0.0001
    156  CD2       30.3760   32.6350   10.6880 C.3   204  LEU204      0.0001
    157  N         36.2640   28.0210   12.8040 N.3   207  MET207     -0.1245
    158  CA        36.6140   27.5150   11.4840 C.3   207  MET207      0.1570
    159  C         37.4690   28.5480   10.7550 C.2   207  MET207      0.2261
    160  O         38.3300   28.1970    9.9520 O.2   207  MET207     -0.2867
    161  CB        35.3570   27.2080   10.6640 C.3   207  MET207      0.0387
    162  CG        34.4900   26.0870   11.2290 C.3   207  MET207      0.0595
    163  SD        35.2790   24.4540   11.2780 S.3   207  MET207     -0.1393
    164  CE        35.8130   24.3810   12.9840 C.3   207  MET207      0.0692
@<TRIPOS>BOND
     1    30    29    1
     2    24    25    1
     3    25    28    1
     4    25    26    1
     5    28    29    1
     6    37    38    1
     7    27    26    2
     8    29    31    1
     9    26    32   am
    10    38    41    1
    11    38    39    1
    12    42    41    1
    13    42    43    1
    14    91    92    2
    15    91    90    1
    16    19    20    2
    17    19    18    1
    18     9    10    1
    19    22    21    1
    20    84    85    1
    21    84    83    1
    22    32    33    1
    23    39    40    2
    24    45    43   ar
    25    43    44   ar
    26     3     4    2
    27     3     2    1
    28    85    86    2
    29    93    90    1
    30    93    94    1
    31    90    89    1
    32    34    35    2
    33    34    33    1
    34    17    18    1
    35    17    11   am
    36    18    21    1
    37    10    11    1
    38    10    13    1
    39    21    23    1
    40    11    12    2
    41     1     2    1
    42    83    82    1
    43    33    36    1
    44    86    87    1
    45    86    88    1
    46    82    79    1
    47     2     5    1
    48    81    80    2
    49    94    95   ar
    50    94    96   ar
    51    13    14    1
    52    16    14    1
    53     5     6    1
    54    95    97   ar
    55    79    80    1
    56    79    78    1
    57    14    15    1
    58    96    98   ar
    59    97    99   ar
    60     6     7    1
    61    61    59    1
    62    76    75    1
    63    98    99   ar
    64     8     7    1
    65    73    72    2
    66    71    70    1
    67    71    74    1
    68    71    72    1
    69    60    59    1
    70    59    58    1
    71    74    75    1
    72    75    77    1
    73   126   125   ar
    74   126   124   ar
    75   125   123   ar
    76    57    56    2
    77    58    55    1
    78   155   154    1
    79    55    56    1
    80    55    54    1
    81   160   159    2
    82    56    62   am
    83   124   122   ar
    84   123   121   ar
    85   161   162    1
    86   161   158    1
    87   156   154    1
    88   159   158    1
    89   107   105    1
    90   154   153    1
    91   162   163    1
    92   163   164    1
    93   158   157    1
    94   106   104    1
    95    62    63    1
    96   122   121   ar
    97   121   120    1
    98    53    52    1
    99   152   151    2
   100    65    64    2
   101    63    64    1
   102    63    66    1
   103   105   104    1
   104   153   150    1
   105    52    51    1
   106   147   145   ar
   107   147   148   ar
   108   104   101    1
   109   150   151    1
   110   150   149    1
   111   120   117    1
   112   145   144   ar
   113   133   132    1
   114    47    46    1
   115    47    48    1
   116    47    50    1
   117    49    48    2
   118    67    66    1
   119    67    68    1
   120   148   146   ar
   121   142   141    2
   122    51    50    1
   123   149   141   am
   124   101   102    1
   125   101   100    1
   126   117   116    1
   127   117   118    1
   128   103   102    2
   129   131   132    1
   130   131   128    1
   131   132   134    1
   132   144   146   ar
   133   144   143    1
   134   141   140    1
   135   119   118    2
   136   138   137    2
   137    68    69    1
   138   116   110   am
   139   130   129    2
   140   129   128    1
   141   143   140    1
   142   137   136    1
   143   128   127    1
   144   114   112    1
   145   136   135    1
   146   140   139    1
   147   112   113    1
   148   112   109    1
   149   110   111    2
   150   110   109    1
   151   115   113    1
   152   109   108    1
