@<TRIPOS>MOLECULE
tmp/1x7aA00.pdb
 222 219 0 0 0
SMALL
GASTEIGER

@<TRIPOS>ATOM
      1  N         75.4330   24.2100   63.9010 N.3    41  HIS41      -0.1241
      2  CA        76.2980   23.8070   62.8070 C.3    41  HIS41       0.1621
      3  C         76.5420   24.9160   61.7570 C.2    41  HIS41       0.2264
      4  O         76.6610   24.6520   60.5700 O.2    41  HIS41      -0.2867
      5  CB        75.7690   22.5010   62.1820 C.3    41  HIS41       0.0745
      6  CG        74.9870   22.6840   60.9190 C.ar   41  HIS41       0.0817
      7  ND1       73.6800   23.1120   60.9050 N.ar   41  HIS41      -0.2268
      8  CD2       75.3410   22.5040   59.6270 C.ar   41  HIS41       0.1154
      9  CE1       73.2610   23.1920   59.6550 C.ar   41  HIS41       0.1986
     10  NE2       74.2530   22.8370   58.8600 N.ar   41  HIS41      -0.2212
     11  N         76.7960   13.0150   66.8300 N.3    84  ASN84      -0.1225
     12  CA        75.5960   13.4990   66.1300 C.3    84  ASN84       0.1785
     13  C         75.4010   15.0220   66.1980 C.2    84  ASN84       0.2597
     14  O         74.7600   15.5480   67.1120 O.2    84  ASN84      -0.2718
     15  CB        74.3550   12.7770   66.6760 C.3    84  ASN84       0.1169
     16  CG        73.0710   13.5550   66.4880 C.2    84  ASN84       0.2627
     17  OD1       72.6780   13.8660   65.3630 O.2    84  ASN84      -0.2716
     18  ND2       72.4870   13.9850   67.5900 N.am   84  ASN84      -0.0877
     19  N         75.9740   15.7260   65.2330 N.am   85  LYS85      -0.1966
     20  CA        76.1980   17.1410   65.4000 C.3    85  LYS85       0.1728
     21  C         75.0740   17.9750   64.8320 C.2    85  LYS85       0.2616
     22  O         75.2230   19.1800   64.6300 O.2    85  LYS85      -0.2715
     23  CB        77.5280   17.5410   64.7630 C.3    85  LYS85       0.0311
     24  CG        77.5750   17.4720   63.2310 C.3    85  LYS85       0.0038
     25  CD        78.9510   17.9680   62.6600 C.3    85  LYS85       0.0206
     26  CE        79.5480   19.1230   63.4830 C.3    85  LYS85       0.1093
     27  NZ        80.3630   18.6020   64.6210 N.3    85  LYS85      -0.1314
     28  N         73.9300   17.3490   64.5900 N.am   86  TYR86      -0.1974
     29  CA        72.7700   18.0940   64.1210 C.3    86  TYR86       0.1639
     30  C         71.5780   17.8460   65.0280 C.2    86  TYR86       0.2290
     31  O         70.4650   17.6880   64.5230 O.2    86  TYR86      -0.2864
     32  CB        72.3880   17.6590   62.7010 C.3    86  TYR86       0.0560
     33  CG        73.3410   18.0560   61.5960 C.ar   86  TYR86      -0.0198
     34  CD1       74.6990   17.7370   61.6610 C.ar   86  TYR86      -0.0009
     35  CD2       72.8530   18.6310   60.4230 C.ar   86  TYR86      -0.0009
     36  CE1       75.5360   17.9700   60.5900 C.ar   86  TYR86       0.0417
     37  CE2       73.6790   18.8720   59.3430 C.ar   86  TYR86       0.0417
     38  CZ        75.0210   18.5350   59.4300 C.ar   86  TYR86       0.1957
     39  OH        75.8360   18.7440   58.3390 O.3    86  TYR86      -0.2866
     40  N         69.7980   27.4760   48.2500 N.3   132  ARG132     -0.1245
     41  CA        69.6210   26.8210   46.9590 C.3   132  ARG132      0.1563
     42  C         68.2060   27.0050   46.4000 C.2   132  ARG132      0.2260
     43  O         67.2040   26.9960   47.1580 O.2   132  ARG132     -0.2867
     44  CB        69.9310   25.3290   47.1010 C.3   132  ARG132      0.0307
     45  CG        71.3840   25.0010   47.4120 C.3   132  ARG132      0.0489
     46  CD        72.2460   25.1770   46.1780 C.3   132  ARG132      0.2205
     47  NE        73.6470   24.8470   46.4250 N.pl3 132  ARG132     -0.0865
     48  CZ        74.0870   23.6250   46.7040 C.cat 132  ARG132      0.5346
     49  NH1       75.3840   23.4120   46.9030 N.pl3 132  ARG132      0.1354
     50  NH2       73.2300   22.6100   46.7820 N.pl3 132  ARG132      0.1354
     51  N         67.7170   21.5940   43.5520 N.3   135  ASN135     -0.1225
     52  CA        68.3420   20.5800   44.3710 C.3   135  ASN135      0.1785
     53  C         69.7750   20.3940   43.9450 C.2   135  ASN135      0.2597
     54  O         70.0550   19.6330   43.0300 O.2   135  ASN135     -0.2718
     55  CB        67.5880   19.2640   44.2600 C.3   135  ASN135      0.1169
     56  CG        68.1540   18.6770   45.5340 C.2   135  ASN135      0.2627
     57  OD1       68.0490   19.2820   46.6040 O.2   135  ASN135     -0.2716
     58  ND2       68.8260   17.5330   45.4170 N.am  135  ASN135     -0.0877
     59  N         70.6790   21.0000   44.7020 N.am  136  ARG136     -0.1979
     60  CA        72.0560   21.1840   44.2720 C.3   136  ARG136      0.1597
     61  C         72.0940   22.0520   43.0110 C.2   136  ARG136      0.2287
     62  O         71.9690   21.5480   41.8890 O.2   136  ARG136     -0.2864
     63  CB        72.7370   19.8300   44.0120 C.3   136  ARG136      0.0334
     64  CG        74.2680   19.9020   43.9780 C.3   136  ARG136      0.0492
     65  CD        74.8960   18.5090   43.9610 C.3   136  ARG136      0.2205
     66  NE        74.6390   17.8010   42.7090 N.pl3 136  ARG136     -0.0865
     67  CZ        75.1400   16.6070   42.4070 C.cat 136  ARG136      0.5346
     68  NH1       74.8400   16.0370   41.2490 N.pl3 136  ARG136      0.1354
     69  NH2       75.9510   15.9860   43.2540 N.pl3 136  ARG136      0.1354
     70  N         68.6580    8.3730   59.0630 N.3   162  PHE162     -0.1227
     71  CA        69.2820    8.8470   60.2910 C.3   162  PHE162      0.1736
     72  C         68.3490    8.9240   61.5040 C.2   162  PHE162      0.2596
     73  O         67.1330    8.7500   61.3740 O.2   162  PHE162     -0.2718
     74  CB        69.9350   10.1950   60.0300 C.3   162  PHE162      0.0547
     75  CG        70.8020   10.2180   58.8000 C.ar  162  PHE162     -0.0202
     76  CD1       70.2330   10.1730   57.5270 C.ar  162  PHE162     -0.0042
     77  CD2       72.1810   10.4060   58.9100 C.ar  162  PHE162     -0.0042
     78  CE1       71.0170   10.3340   56.3840 C.ar  162  PHE162     -0.0003
     79  CE2       72.9780   10.5710   57.7690 C.ar  162  PHE162     -0.0003
     80  CZ        72.3880   10.5390   56.5030 C.ar  162  PHE162     -0.0000
     81  N         68.9390    9.0950   62.6880 N.am  163  THR163     -0.1953
     82  CA        68.1820    9.2340   63.9360 C.3   163  THR163      0.1897
     83  C         67.5710   10.6380   64.0910 C.2   163  THR163      0.2313
     84  O         68.2810   11.6390   64.2710 O.2   163  THR163     -0.2863
     85  CB        69.0630    8.9410   65.1850 C.3   163  THR163      0.1794
     86  OG1       69.7660    7.7010   65.0160 O.3   163  THR163     -0.2208
     87  CG2       68.2010    8.8410   66.4300 C.3   163  THR163      0.0378
     88  N         65.6880   12.5180   66.5430 N.3   165  TYR165     -0.1241
     89  CA        65.2880   12.5220   67.9490 C.3   165  TYR165      0.1605
     90  C         64.1230   13.5240   68.1320 C.2   165  TYR165      0.2264
     91  O         63.4620   13.8970   67.1500 O.2   165  TYR165     -0.2867
     92  CB        66.4800   12.8860   68.8420 C.3   165  TYR165      0.0534
     93  CG        67.8080   12.3360   68.3580 C.ar  165  TYR165     -0.0201
     94  CD1       68.3580   12.7500   67.1440 C.ar  165  TYR165     -0.0009
     95  CD2       68.5200   11.4010   69.1080 C.ar  165  TYR165     -0.0009
     96  CE1       69.5810   12.2500   66.6830 C.ar  165  TYR165      0.0417
     97  CE2       69.7460   10.8790   68.6500 C.ar  165  TYR165      0.0417
     98  CZ        70.2650   11.3140   67.4330 C.ar  165  TYR165      0.1957
     99  OH        71.4530   10.8120   66.9450 O.3   165  TYR165     -0.2866
    100  N         64.0790   17.7000   67.3240 N.3   168  MET168     -0.1245
    101  CA        63.7950   18.0430   65.9540 C.3   168  MET168      0.1570
    102  C         62.3850   17.5610   65.6270 C.2   168  MET168      0.2261
    103  O         61.7040   17.0020   66.4810 O.2   168  MET168     -0.2867
    104  CB        64.8470   17.4350   65.0000 C.3   168  MET168      0.0387
    105  CG        65.2350   15.9300   65.2250 C.3   168  MET168      0.0595
    106  SD        66.9830   15.6570   65.7420 S.3   168  MET168     -0.1393
    107  CE        67.8590   15.5850   64.1710 C.3   168  MET168      0.0692
    108  N         61.1600   22.3480   49.4230 N.3   179  ASP179     -0.1225
    109  CA        61.7380   22.2740   50.7690 C.3   179  ASP179      0.1805
    110  C         62.6970   23.4520   50.9870 C.2   179  ASP179      0.2598
    111  O         62.9550   24.2370   50.0650 O.2   179  ASP179     -0.2718
    112  CB        62.5130   20.9600   50.9330 C.3   179  ASP179      0.1424
    113  CG        62.7660   20.4060   52.3460 C.2   179  ASP179      0.3668
    114  OD1       62.1740   20.9670   53.3110 O.co2 179  ASP179     -0.2456
    115  OD2       63.5100   19.3880   52.4750 O.co2 179  ASP179     -0.2456
    116  N         63.2330   23.5720   52.1990 N.am  180  SER180     -0.1938
    117  CA        64.3360   24.4930   52.4330 C.3   180  SER180      0.2055
    118  C         65.5670   23.8840   51.7660 C.2   180  SER180      0.2643
    119  O         65.4270   23.1010   50.8280 O.2   180  SER180     -0.2714
    120  CB        64.5660   24.6880   53.9360 C.3   180  SER180      0.2130
    121  OG        64.6090   23.4490   54.6190 O.3   180  SER180     -0.2179
    122  N         66.7600   24.1720   52.2770 N.am  181  CYS181     -0.1953
    123  CA        67.9820   23.6400   51.6790 C.3   181  CYS181      0.1843
    124  C         69.2470   24.1580   52.3470 C.2   181  CYS181      0.2625
    125  O         69.2220   25.1250   53.1160 O.2   181  CYS181     -0.2714
    126  CB        68.0450   23.9870   50.1840 C.3   181  CYS181      0.0997
    127  SG        69.0050   22.7790   49.1960 S.3   181  CYS181     -0.0797
    128  N         70.3610   23.5070   52.0250 N.am  182  GLN182     -0.1977
    129  CA        71.6990   24.0440   52.2640 C.3   182  GLN182      0.1601
    130  C         71.7020   25.5210   51.8370 C.2   182  GLN182      0.2287
    131  O         71.0260   25.9000   50.8660 O.2   182  GLN182     -0.2864
    132  CB        72.7080   23.2370   51.4400 C.3   182  GLN182      0.0394
    133  CG        74.1130   23.4070   51.8450 C.3   182  GLN182      0.0908
    134  CD        75.0500   23.5350   50.6500 C.2   182  GLN182      0.2608
    135  OE1       75.3930   24.6400   50.2230 O.2   182  GLN182     -0.2717
    136  NE2       75.4880   22.4010   50.1220 N.am  182  GLN182     -0.0878
    137  N         70.0640   26.9720   55.6230 N.3   185  SER185     -0.1217
    138  CA        70.3210   26.4270   56.9470 C.3   185  SER185      0.1889
    139  C         70.3570   27.4980   58.0070 C.2   185  SER185      0.2288
    140  O         70.9200   28.5410   57.7780 O.2   185  SER185     -0.2866
    141  CB        71.6360   25.6600   56.9220 C.3   185  SER185      0.2089
    142  OG        71.6480   24.7680   55.8140 O.3   185  SER185     -0.2183
    143  N         65.8080   26.0700   60.6190 N.3   203  ILE203     -0.1231
    144  CA        65.8010   25.1180   59.5120 C.3   203  ILE203      0.1692
    145  C         67.1350   24.4060   59.6080 C.2   203  ILE203      0.2593
    146  O         68.1240   25.0610   59.8470 O.2   203  ILE203     -0.2718
    147  CB        65.5550   25.7810   58.0970 C.3   203  ILE203      0.0266
    148  CG1       66.8180   25.8080   57.2430 C.3   203  ILE203      0.0019
    149  CG2       65.0590   27.1740   58.2310 C.3   203  ILE203      0.0020
    150  CD1       67.1210   24.4960   56.5360 C.3   203  ILE203      0.0001
    151  N         67.1530   23.0760   59.6450 N.am  204  SER204     -0.1938
    152  CA        68.3590   22.3630   60.1080 C.3   204  SER204      0.2055
    153  C         69.0910   21.5910   59.0110 C.2   204  SER204      0.2643
    154  O         70.1060   22.0650   58.4900 O.2   204  SER204     -0.2714
    155  CB        68.0010   21.4160   61.2560 C.3   204  SER204      0.2130
    156  OG        69.1460   20.9810   61.9660 O.3   204  SER204     -0.2179
    157  N         68.6010   20.3980   58.6860 N.am  205  TRP205     -0.1959
    158  CA        69.2470   19.5400   57.7030 C.3   205  TRP205      0.1771
    159  C         68.2460   18.8500   56.7760 C.2   205  TRP205      0.2620
    160  O         67.1270   19.3320   56.6020 O.2   205  TRP205     -0.2715
    161  CB        70.1040   18.4900   58.4150 C.3   205  TRP205      0.0590
    162  CG        69.3920   17.6160   59.4340 C.ar  205  TRP205      0.0006
    163  CD1       69.3960   17.7860   60.7920 C.ar  205  TRP205      0.0946
    164  CD2       68.8100   16.3280   59.1980 C.ar  205  TRP205      0.0152
    165  NE1       68.8870   16.6740   61.4120 N.ar  205  TRP205     -0.2442
    166  CE2       68.5190   15.7630   60.4610 C.ar  205  TRP205      0.0810
    167  CE3       68.5010   15.5990   58.0460 C.ar  205  TRP205      0.0012
    168  CZ2       67.9310   14.4960   60.6050 C.ar  205  TRP205      0.0191
    169  CZ3       67.9040   14.3410   58.1810 C.ar  205  TRP205      0.0001
    170  CH2       67.6260   13.8030   59.4570 C.ar  205  TRP205      0.0015
    171  N         68.6320   17.7070   56.2180 N.am  206  GLY206     -0.1940
    172  CA        67.7070   16.9150   55.4280 C.3   206  GLY206      0.2014
    173  C         68.4230   16.0380   54.4270 C.2   206  GLY206      0.2639
    174  O         69.2860   16.5250   53.7170 O.2   206  GLY206     -0.2714
    175  N         68.1820   14.7300   54.4620 N.am  207  GLU207     -0.1963
    176  CA        68.7510   13.8260   53.4540 C.3   207  GLU207      0.1733
    177  C         68.4990   14.4030   52.0460 C.2   207  GLU207      0.2616
    178  O         67.5790   13.9850   51.3510 O.2   207  GLU207     -0.2715
    179  CB        68.1330   12.4190   53.5540 C.3   207  GLU207      0.0429
    180  CG        68.3290   11.7090   54.8860 C.3   207  GLU207      0.1163
    181  CD        67.8330   10.2510   54.8690 C.2   207  GLU207      0.3649
    182  OE1       68.7040    9.3570   54.7860 O.co2 207  GLU207     -0.2457
    183  OE2       66.6160    9.9670   54.9600 O.co2 207  GLU207     -0.2457
    184  N         69.3710   15.3080   51.6180 N.am  208  GLU208     -0.1963
    185  CA        69.2030   16.0780   50.3940 C.3   208  GLU208      0.1733
    186  C         68.1170   17.1160   50.5960 C.2   208  GLU208      0.2616
    187  O         67.7470   17.3970   51.7370 O.2   208  GLU208     -0.2715
    188  CB        68.8810   15.1690   49.2070 C.3   208  GLU208      0.0429
    189  CG        69.4720   15.6400   47.8920 C.3   208  GLU208      0.1163
    190  CD        69.8470   14.4910   46.9860 C.2   208  GLU208      0.3649
    191  OE1       71.0580   14.2050   46.9180 O.co2 208  GLU208     -0.2457
    192  OE2       68.9540   13.8490   46.3820 O.co2 208  GLU208     -0.2457
    193  N         67.7540   17.8090   49.5150 N.am  209  CYS209     -0.1968
    194  CA        66.6980   18.8250   49.5480 C.3   209  CYS209      0.1712
    195  C         65.5230   18.4500   48.6460 C.2   209  CYS209      0.2296
    196  O         65.7070   17.9320   47.5440 O.2   209  CYS209     -0.2864
    197  CB        67.2370   20.2020   49.1210 C.3   209  CYS209      0.0983
    198  SG        68.5260   20.9720   50.1150 S.3   209  CYS209     -0.0798
    199  N         62.6140   17.5340   54.6810 N.3   216  GLY216     -0.1210
    200  CA        63.6400   18.2840   55.3860 C.3   216  GLY216      0.1956
    201  C         63.2370   18.3830   56.8400 C.2   216  GLY216      0.2612
    202  O         62.0400   18.3690   57.1380 O.2   216  GLY216     -0.2717
    203  N         64.2020   18.4860   57.7490 N.am  217  ILE217     -0.1965
    204  CA        63.8760   18.4490   59.1730 C.3   217  ILE217      0.1727
    205  C         64.3890   19.6490   59.9890 C.2   217  ILE217      0.2616
    206  O         65.2800   20.3920   59.5300 O.2   217  ILE217     -0.2715
    207  CB        64.3270   17.1320   59.8090 C.3   217  ILE217      0.0290
    208  CG1       65.6980   17.2900   60.4150 C.3   217  ILE217      0.0022
    209  CG2       64.1490   15.9810   58.8200 C.3   217  ILE217      0.0023
    210  CD1       65.7710   16.6760   61.7680 C.3   217  ILE217      0.0001
    211  N         63.6870   19.9530   61.0860 N.am  218  TYR218     -0.1974
    212  CA        63.8170   21.2550   61.7760 C.3   218  TYR218      0.1639
    213  C         63.9520   21.0800   63.2870 C.2   218  TYR218      0.2290
    214  O         63.6950   19.9980   63.8300 O.2   218  TYR218     -0.2864
    215  CB        62.6140   22.1760   61.4960 C.3   218  TYR218      0.0560
    216  CG        62.3650   22.4830   60.0260 C.ar  218  TYR218     -0.0198
    217  CD1       61.7510   21.5580   59.2000 C.ar  218  TYR218     -0.0009
    218  CD2       62.8370   23.6360   59.4440 C.ar  218  TYR218     -0.0009
    219  CE1       61.6440   21.7610   57.8320 C.ar  218  TYR218      0.0417
    220  CE2       62.7310   23.8420   58.0760 C.ar  218  TYR218      0.0417
    221  CZ        62.1430   22.8960   57.2830 C.ar  218  TYR218      0.1957
    222  OH        62.0890   23.0720   55.9230 O.3   218  TYR218     -0.2866
@<TRIPOS>BOND
     1    68    67    1
     2    62    61    2
     3    67    66    2
     4    67    69    1
     5    66    65    1
     6    61    60    1
     7    54    53    2
     8    51    52    1
     9    53    52    1
    10    53    59   am
    11    65    64    1
    12    64    63    1
    13    63    60    1
    14    55    52    1
    15    55    56    1
    16    60    59    1
    17    58    56   am
    18    56    57    2
    19    46    47    1
    20    46    45    1
    21   192   190   ar
    22    42    41    1
    23    42    43    2
    24    47    48    2
    25    48    50    1
    26    48    49    1
    27   191   190   ar
    28    41    44    1
    29    41    40    1
    30   190   189    1
    31    44    45    1
    32   196   195    2
    33   189   188    1
    34   195   194    1
    35   197   194    1
    36   197   198    1
    37   127   198    1
    38   127   126    1
    39   188   185    1
    40   108   109    1
    41   193   194    1
    42   193   186   am
    43   111   110    2
    44   136   134   am
    45   126   123    1
    46   135   134    2
    47   185   186    1
    48   185   184    1
    49   186   187    2
    50   134   133    1
    51   109   112    1
    52   109   110    1
    53   119   118    2
    54   131   130    2
    55   112   113    1
    56   110   116   am
    57   178   177    2
    58   132   133    1
    59   132   129    1
    60   184   177   am
    61   123   122    1
    62   123   124    1
    63   118   122   am
    64   118   117    1
    65   130   129    1
    66   128   129    1
    67   128   124   am
    68   177   176    1
    69   116   117    1
    70   113   115   ar
    71   113   114   ar
    72   124   125    2
    73   117   120    1
    74   176   179    1
    75   176   175    1
    76   179   180    1
    77   174   173    2
    78   120   121    1
    79   173   175   am
    80   173   172    1
    81   199   200    1
    82   182   181   ar
    83   181   180    1
    84   181   183   ar
    85   200   201    1
    86   172   171    1
    87   137   138    1
    88   142   141    1
    89   222   221    1
    90   171   159   am
    91    78    80   ar
    92    78    76   ar
    93    80    79   ar
    94   150   148    1
    95   160   159    2
    96   159   158    1
    97   201   202    2
    98   201   203   am
    99   141   138    1
   100   138   139    1
   101   148   147    1
   102   221   219   ar
   103   221   220   ar
   104    76    75   ar
   105   158   161    1
   106   158   157    1
   107   203   204    1
   108    79    77   ar
   109   140   139    2
   110   219   217   ar
   111   167   169   ar
   112   167   164   ar
   113   220   218   ar
   114   147   149    1
   115   147   144    1
   116   169   170   ar
   117    39    38    1
   118   161   162    1
   119   154   153    2
   120   157   153   am
   121    75    77   ar
   122    75    74    1
   123   209   207    1
   124    10     8   ar
   125    10     9   ar
   126   153   152    1
   127    70    71    1
   128   204   207    1
   129   204   205    1
   130   164   162   ar
   131   164   166   ar
   132   217   216   ar
   133    37    38   ar
   134    37    35   ar
   135    38    36   ar
   136   162   163   ar
   137   218   216   ar
   138   170   168   ar
   139   144   145    1
   140   144   143    1
   141   206   205    2
   142   145   151   am
   143   145   146    2
   144     8     6   ar
   145   151   152    1
   146     9     7   ar
   147   207   208    1
   148   205   211   am
   149   216   215    1
   150    74    71    1
   151   152   155    1
   152    71    72    1
   153   208   210    1
   154    35    33   ar
   155   166   168   ar
   156   166   165   ar
   157     4     3    2
   158    36    34   ar
   159   163   165   ar
   160     7     6   ar
   161     6     5    1
   162   211   212    1
   163   155   156    1
   164    73    72    2
   165   215   212    1
   166    72    81   am
   167    33    34   ar
   168    33    32    1
   169     3     2    1
   170   212   213    1
   171     5     2    1
   172    25    24    1
   173    25    26    1
   174    81    82    1
   175    32    29    1
   176     2     1    1
   177    24    23    1
   178   213   214    2
   179    26    27    1
   180    82    83    1
   181    82    85    1
   182    83    84    2
   183    29    28    1
   184    29    30    1
   185   107   106    1
   186    31    30    2
   187    28    21   am
   188    22    21    2
   189    23    20    1
   190    21    20    1
   191   104   105    1
   192   104   101    1
   193    86    85    1
   194    85    87    1
   195   105   106    1
   196    19    20    1
   197    19    13   am
   198    17    16    2
   199   102   101    1
   200   102   103    2
   201   101   100    1
   202    12    13    1
   203    12    15    1
   204    12    11    1
   205    13    14    2
   206    16    15    1
   207    16    18   am
   208    88    89    1
   209    96    94   ar
   210    96    98   ar
   211    99    98    1
   212    94    93   ar
   213    91    90    2
   214    98    97   ar
   215    89    90    1
   216    89    92    1
   217    93    92    1
   218    93    95   ar
   219    97    95   ar
