@<TRIPOS>MOLECULE
tmp/1x7bB01.pdb
 156 145 0 0 0
SMALL
GASTEIGER

@<TRIPOS>ATOM
      1  N         31.6800   24.1450    4.7780 N.3    33  MET33      -0.1245
      2  CA        31.8630   25.4540    5.3830 C.3    33  MET33       0.1570
      3  C         31.8140   26.5330    4.3230 C.2    33  MET33       0.2261
      4  O         31.4140   27.6670    4.5870 O.2    33  MET33      -0.2867
      5  CB        33.1980   25.5150    6.1270 C.3    33  MET33       0.0387
      6  CG        33.2090   24.7080    7.4110 C.3    33  MET33       0.0595
      7  SD        31.7890   25.1390    8.4680 S.3    33  MET33      -0.1393
      8  CE        31.9500   26.9140    8.5280 C.3    33  MET33       0.0692
      9  N         28.1070   27.0700    3.5210 N.3    36  LEU36      -0.1231
     10  CA        27.4460   27.8070    4.5900 C.3    36  LEU36       0.1693
     11  C         27.8530   29.2660    4.6520 C.2    36  LEU36       0.2592
     12  O         26.9960   30.1430    4.7840 O.2    36  LEU36      -0.2718
     13  CB        27.7180   27.1450    5.9380 C.3    36  LEU36       0.0284
     14  CG        27.1740   25.7200    6.0700 C.3    36  LEU36       0.0019
     15  CD1       27.5390   25.1530    7.4340 C.3    36  LEU36       0.0001
     16  CD2       25.6600   25.7250    5.8830 C.3    36  LEU36       0.0001
     17  N         29.1520   29.5380    4.5470 N.am   37  THR37      -0.1953
     18  CA        29.6100   30.9140    4.6140 C.3    37  THR37       0.1897
     19  C         29.0900   31.6830    3.4130 C.2    37  THR37       0.2313
     20  O         28.6660   32.8280    3.5510 O.2    37  THR37      -0.2863
     21  CB        31.1460   31.0070    4.6820 C.3    37  THR37       0.1794
     22  OG1       31.7270   30.2900    3.5850 O.3    37  THR37      -0.2208
     23  CG2       31.6490   30.4100    5.9910 C.3    37  THR37       0.0378
     24  N         26.3170   31.0410    1.6220 N.3    39  LEU39      -0.1231
     25  CA        24.8750   31.2530    1.7750 C.3    39  LEU39       0.1693
     26  C         24.6000   32.4030    2.7540 C.2    39  LEU39       0.2591
     27  O         23.8050   33.3020    2.4670 O.2    39  LEU39      -0.2718
     28  CB        24.1910   29.9740    2.2750 C.3    39  LEU39       0.0284
     29  CG        22.7120   30.1270    2.6500 C.3    39  LEU39       0.0019
     30  CD1       21.9210   30.6050    1.4420 C.3    39  LEU39       0.0001
     31  CD2       22.1710   28.8090    3.1600 C.3    39  LEU39       0.0001
     32  N         25.2780   32.3730    3.9000 N.am   40  ALA40      -0.1980
     33  CA        25.1240   33.3960    4.9260 C.3    40  ALA40       0.1597
     34  C         25.4520   34.7830    4.3910 C.2    40  ALA40       0.2287
     35  O         24.7590   35.7580    4.6890 O.2    40  ALA40      -0.2864
     36  CB        26.0180   33.0790    6.1140 C.3    40  ALA40       0.0319
     37  N         22.5450   35.8460    2.2920 N.3    43  GLU43      -0.1245
     38  CA        21.3650   36.1010    3.1110 C.3    43  GLU43       0.1567
     39  C         21.5410   37.3700    3.9230 C.2    43  GLU43       0.2260
     40  O         20.5810   38.1150    4.1290 O.2    43  GLU43      -0.2867
     41  CB        21.0840   34.9280    4.0470 C.3    43  GLU43       0.0388
     42  CG        20.4520   33.7320    3.3720 C.3    43  GLU43       0.1160
     43  CD        20.2850   32.5680    4.3280 C.2    43  GLU43       0.3649
     44  OE1       21.3090   31.9960    4.7510 O.co2  43  GLU43      -0.2457
     45  OE2       19.1310   32.2240    4.6630 O.co2  43  GLU43      -0.2457
     46  N         22.8960   35.9790   13.2060 N.3    74  MET74      -0.1245
     47  CA        22.9110   34.5200   13.0960 C.3    74  MET74       0.1570
     48  C         21.6340   33.8910   13.6310 C.2    74  MET74       0.2261
     49  O         21.1730   32.8720   13.1130 O.2    74  MET74      -0.2867
     50  CB        24.1180   33.9130   13.8150 C.3    74  MET74       0.0387
     51  CG        24.1770   32.4070   13.6950 C.3    74  MET74       0.0595
     52  SD        24.4320   31.7610   12.0140 S.3    74  MET74      -0.1393
     53  CE        26.2520   31.5980   11.9980 C.3    74  MET74       0.0692
     54  N         19.1920   34.2480   10.9560 N.3    77  LEU77      -0.1231
     55  CA        19.4500   33.2630    9.9120 C.3    77  LEU77       0.1693
     56  C         18.9000   31.8860   10.2970 C.2    77  LEU77       0.2591
     57  O         18.2460   31.2280    9.4850 O.2    77  LEU77      -0.2718
     58  CB        20.9580   33.1490    9.6180 C.3    77  LEU77       0.0284
     59  CG        21.7040   34.3170    8.9500 C.3    77  LEU77       0.0019
     60  CD1       23.1530   33.9040    8.6600 C.3    77  LEU77       0.0001
     61  CD2       21.0070   34.7020    7.6530 C.3    77  LEU77       0.0001
     62  N         19.1440   31.4570   11.5340 N.am   78  MET78      -0.1979
     63  CA        18.6900   30.1410   11.9790 C.3    78  MET78       0.1605
     64  C         17.1790   30.0170   12.1930 C.2    78  MET78       0.2287
     65  O         16.6210   28.9390   12.0340 O.2    78  MET78      -0.2864
     66  CB        19.4420   29.7290   13.2480 C.3    78  MET78       0.0413
     67  CG        20.9600   29.7060   13.0560 C.3    78  MET78       0.0598
     68  SD        21.8770   29.0500   14.4580 S.3    78  MET78      -0.1393
     69  CE        23.1930   28.1320   13.6020 C.3    78  MET78       0.0692
     70  N         16.0380   29.3440    8.9400 N.3    81  LEU81      -0.1245
     71  CA        16.4100   27.9730    8.5890 C.3    81  LEU81       0.1561
     72  C         15.4330   26.9730    9.2030 C.2    81  LEU81       0.2260
     73  O         15.0580   25.9910    8.5660 O.2    81  LEU81      -0.2867
     74  CB        17.8210   27.6450    9.0970 C.3    81  LEU81       0.0270
     75  CG        18.2060   26.1550    9.1090 C.3    81  LEU81       0.0019
     76  CD1       18.2430   25.6350    7.6780 C.3    81  LEU81       0.0001
     77  CD2       19.5690   25.9520    9.7880 C.3    81  LEU81       0.0001
     78  N         12.0810   27.0440    7.3900 N.3    84  ARG84      -0.1245
     79  CA        12.2280   26.3390    6.1130 C.3    84  ARG84       0.1563
     80  C         12.2670   24.8210    6.2670 C.2    84  ARG84       0.2260
     81  O         11.9180   24.0960    5.3350 O.2    84  ARG84      -0.2867
     82  CB        13.5110   26.7800    5.3810 C.3    84  ARG84       0.0307
     83  CG        13.5150   28.2170    4.8860 C.3    84  ARG84       0.0489
     84  CD        14.5760   28.4590    3.8120 C.3    84  ARG84       0.2205
     85  NE        15.9610   28.2770    4.2680 N.pl3  84  ARG84      -0.0865
     86  CZ        16.6470   29.1700    4.9760 C.cat  84  ARG84       0.5346
     87  NH1       16.0920   30.3190    5.3300 N.pl3  84  ARG84       0.1354
     88  NH2       17.9060   28.9250    5.3070 N.pl3  84  ARG84       0.1354
     89  N         18.8700   24.5560    4.3470 N.3    94  PHE94      -0.1241
     90  CA        19.6140   25.8130    4.3270 C.3    94  PHE94       0.1605
     91  C         19.1870   26.6290    3.1150 C.2    94  PHE94       0.2264
     92  O         19.2320   27.8610    3.1330 O.2    94  PHE94      -0.2867
     93  CB        21.1180   25.5510    4.2860 C.3    94  PHE94       0.0534
     94  CG        21.6720   25.0500    5.5830 C.ar   94  PHE94      -0.0203
     95  CD1       21.6510   23.6890    5.8880 C.ar   94  PHE94      -0.0042
     96  CD2       22.1880   25.9430    6.5170 C.ar   94  PHE94      -0.0042
     97  CE1       22.1370   23.2250    7.1040 C.ar   94  PHE94      -0.0003
     98  CE2       22.6770   25.4950    7.7390 C.ar   94  PHE94      -0.0003
     99  CZ        22.6540   24.1330    8.0380 C.ar   94  PHE94      -0.0000
    100  N         30.1800   20.4320   14.2310 N.3   111  ILE111     -0.1245
    101  CA        29.0040   21.0910   13.6810 C.3   111  ILE111      0.1561
    102  C         27.7720   20.2150   13.9160 C.2   111  ILE111      0.2260
    103  O         26.6660   20.7220   14.0920 O.2   111  ILE111     -0.2867
    104  CB        29.1690   21.3690   12.1600 C.3   111  ILE111      0.0252
    105  CG1       28.2370   22.4980   11.7240 C.3   111  ILE111      0.0019
    106  CG2       28.8570   20.1180   11.3580 C.3   111  ILE111      0.0019
    107  CD1       28.4480   22.9300   10.2980 C.3   111  ILE111      0.0001
    108  N         25.5800   21.0950   16.6630 N.3   114  ILE114     -0.1231
    109  CA        24.7620   22.2610   16.3460 C.3   114  ILE114      0.1692
    110  C         23.5940   21.8750   15.4380 C.2   114  ILE114      0.2592
    111  O         22.5000   22.4250   15.5620 O.2   114  ILE114     -0.2718
    112  CB        25.6020   23.3630   15.6780 C.3   114  ILE114      0.0266
    113  CG1       26.7540   23.7530   16.6170 C.3   114  ILE114      0.0019
    114  CG2       24.7400   24.5780   15.3830 C.3   114  ILE114      0.0020
    115  CD1       27.7840   24.6740   16.0160 C.3   114  ILE114      0.0001
    116  N         23.8250   20.9350   14.5270 N.am  115  PHE115     -0.1976
    117  CA        22.7600   20.4770   13.6400 C.3   115  PHE115      0.1639
    118  C         21.6770   19.7970   14.4710 C.2   115  PHE115      0.2290
    119  O         20.4940   19.8690   14.1340 O.2   115  PHE115     -0.2864
    120  CB        23.2840   19.4650   12.6260 C.3   115  PHE115      0.0560
    121  CG        23.9260   20.0770   11.4160 C.ar  115  PHE115     -0.0200
    122  CD1       24.4630   21.3570   11.4610 C.ar  115  PHE115     -0.0042
    123  CD2       24.0430   19.3410   10.2400 C.ar  115  PHE115     -0.0042
    124  CE1       25.1100   21.8920   10.3530 C.ar  115  PHE115     -0.0003
    125  CE2       24.6880   19.8670    9.1300 C.ar  115  PHE115     -0.0003
    126  CZ        25.2230   21.1410    9.1850 C.ar  115  PHE115     -0.0000
    127  N         19.5620   22.3550   16.3180 N.3   118  LEU118     -0.1245
    128  CA        18.7870   23.0740   15.3140 C.3   118  LEU118      0.1561
    129  C         17.5690   22.2480   14.9310 C.2   118  LEU118      0.2260
    130  O         16.4710   22.7810   14.7860 O.2   118  LEU118     -0.2867
    131  CB        19.6260   23.3510   14.0630 C.3   118  LEU118      0.0270
    132  CG        20.4410   24.6420   14.0940 C.3   118  LEU118      0.0019
    133  CD1       21.3720   24.7070   12.8830 C.3   118  LEU118      0.0001
    134  CD2       19.4790   25.8340   14.1280 C.3   118  LEU118      0.0001
    135  N         26.7820   28.5220   16.9060 N.3   200  GLY200     -0.1225
    136  CA        27.0970   28.6750   15.4990 C.3   200  GLY200      0.1811
    137  C         28.1400   29.7450   15.2350 C.2   200  GLY200      0.2280
    138  O         29.0330   29.5440   14.4310 O.2   200  GLY200     -0.2866
    139  N         31.5040   28.6500   16.6280 N.3   203  HIS203     -0.1226
    140  CA        32.0160   27.6090   15.7400 C.3   203  HIS203      0.1752
    141  C         32.5500   28.1860   14.4250 C.2   203  HIS203      0.2595
    142  O         33.4700   27.6260   13.8280 O.2   203  HIS203     -0.2718
    143  CB        30.9190   26.5910   15.4330 C.3   203  HIS203      0.0759
    144  CG        31.3210   25.5430   14.4410 C.ar  203  HIS203      0.0818
    145  ND1       31.4570   25.8060   13.0960 N.ar  203  HIS203     -0.2268
    146  CD2       31.6210   24.2320   14.5990 C.ar  203  HIS203      0.1154
    147  CE1       31.8220   24.7020   12.4670 C.ar  203  HIS203      0.1986
    148  NE2       31.9290   23.7320   13.3560 N.ar  203  HIS203     -0.2212
    149  N         31.9690   29.2910   13.9650 N.am  204  LEU204     -0.1980
    150  CA        32.4130   29.9240   12.7240 C.3   204  LEU204      0.1596
    151  C         33.7370   30.6570   12.9350 C.2   204  LEU204      0.2287
    152  O         34.6130   30.6370   12.0660 O.2   204  LEU204     -0.2864
    153  CB        31.3590   30.9110   12.2160 C.3   204  LEU204      0.0297
    154  CG        31.7470   31.8060   11.0340 C.3   204  LEU204      0.0022
    155  CD1       32.1950   30.9560    9.8430 C.3   204  LEU204      0.0001
    156  CD2       30.5550   32.6900   10.6570 C.3   204  LEU204      0.0001
@<TRIPOS>BOND
     1    30    29    1
     2    24    25    1
     3    25    28    1
     4    25    26    1
     5    28    29    1
     6    37    38    1
     7    27    26    2
     8    29    31    1
     9    26    32   am
    10    38    39    1
    11    38    41    1
    12    91    92    2
    13    91    90    1
    14    42    41    1
    15    42    43    1
    16    19    20    2
    17    19    18    1
    18     9    10    1
    19    22    21    1
    20    84    85    1
    21    84    83    1
    22    32    33    1
    23    39    40    2
    24    85    86    2
    25    93    90    1
    26    93    94    1
    27     3     4    2
    28     3     2    1
    29    90    89    1
    30    43    45   ar
    31    43    44   ar
    32    34    35    2
    33    34    33    1
    34    17    18    1
    35    17    11   am
    36    10    11    1
    37    10    13    1
    38    18    21    1
    39    11    12    2
    40    21    23    1
    41     1     2    1
    42    83    82    1
    43    33    36    1
    44    86    88    1
    45    86    87    1
    46    81    80    2
    47    82    79    1
    48     2     5    1
    49    94    95   ar
    50    94    96   ar
    51    16    14    1
    52    95    97   ar
    53    13    14    1
    54    14    15    1
    55    79    80    1
    56    79    78    1
    57     5     6    1
    58    96    98   ar
    59    97    99   ar
    60     6     7    1
    61    61    59    1
    62    76    75    1
    63    98    99   ar
    64     7     8    1
    65    73    72    2
    66    71    70    1
    67    71    74    1
    68    71    72    1
    69    60    59    1
    70    59    58    1
    71    74    75    1
    72    75    77    1
    73   125   126   ar
    74   125   123   ar
    75   126   124   ar
    76    57    56    2
    77    58    55    1
    78   155   154    1
    79    55    56    1
    80    55    54    1
    81   123   121   ar
    82    56    62   am
    83   107   105    1
    84   124   122   ar
    85   156   154    1
    86   154   153    1
    87   106   104    1
    88   121   122   ar
    89   121   120    1
    90    62    63    1
    91   105   104    1
    92    63    64    1
    93    63    66    1
    94    53    52    1
    95    52    51    1
    96    65    64    2
    97   152   151    2
    98   104   101    1
    99   153   150    1
   100   147   145   ar
   101   147   148   ar
   102   120   117    1
   103   150   151    1
   104   150   149    1
   105   133   132    1
   106    67    66    1
   107    67    68    1
   108    47    46    1
   109    47    48    1
   110    47    50    1
   111   145   144   ar
   112    49    48    2
   113   148   146   ar
   114    69    68    1
   115   117   118    1
   116   117   116    1
   117   101   102    1
   118   101   100    1
   119    51    50    1
   120   142   141    2
   121   102   103    2
   122   149   141   am
   123   131   132    1
   124   131   128    1
   125   132   134    1
   126   119   118    2
   127   141   140    1
   128   138   137    2
   129   144   146   ar
   130   144   143    1
   131   116   110   am
   132   130   129    2
   133   129   128    1
   134   137   136    1
   135   128   127    1
   136   114   112    1
   137   143   140    1
   138   110   111    2
   139   110   109    1
   140   136   135    1
   141   112   109    1
   142   112   113    1
   143   140   139    1
   144   115   113    1
   145   109   108    1
