@<TRIPOS>MOLECULE
tmp/1x7dA01.pdb
 114 103 0 0 0
SMALL
GASTEIGER

@<TRIPOS>ATOM
      1  N         23.0410   36.0110   26.9470 N.3    43  ARG43      -0.1245
      2  CA        22.9310   35.9850   25.4960 C.3    43  ARG43       0.1563
      3  C         23.0060   34.5610   24.9600 C.2    43  ARG43       0.2260
      4  O         23.5890   33.6750   25.5920 O.2    43  ARG43      -0.2867
      5  CB        24.0230   36.8490   24.8610 C.3    43  ARG43       0.0307
      6  CG        25.4440   36.4410   25.2060 C.3    43  ARG43       0.0489
      7  CD        26.4320   37.4670   24.6830 C.3    43  ARG43       0.2205
      8  NE        27.7460   37.3000   25.2920 N.pl3  43  ARG43      -0.0865
      9  CZ        28.7020   38.2230   25.2800 C.cat  43  ARG43       0.5346
     10  NH1       28.4990   39.3870   24.6810 N.pl3  43  ARG43       0.1354
     11  NH2       29.8520   37.9920   25.8960 N.pl3  43  ARG43       0.1354
     12  N         31.9910   32.7410   16.7350 N.3    52  VAL52      -0.1245
     13  CA        30.7040   32.6200   17.3980 C.3    52  VAL52       0.1561
     14  C         29.7750   33.7060   16.8760 C.2    52  VAL52       0.2260
     15  O         30.2220   34.7730   16.4560 O.2    52  VAL52      -0.2867
     16  CB        30.8470   32.7780   18.9380 C.3    52  VAL52       0.0252
     17  CG1       31.3300   34.1760   19.2750 C.3    52  VAL52       0.0019
     18  CG2       29.5190   32.4950   19.6310 C.3    52  VAL52       0.0019
     19  N         26.1940   35.5700   18.1440 N.3    54  GLU54      -0.1245
     20  CA        25.3100   35.6850   19.2990 C.3    54  GLU54       0.1567
     21  C         24.1900   36.7040   19.1390 C.2    54  GLU54       0.2260
     22  O         24.2980   37.6450   18.3560 O.2    54  GLU54      -0.2867
     23  CB        26.1340   36.0700   20.5300 C.3    54  GLU54       0.0388
     24  CG        27.4920   35.4030   20.6030 C.3    54  GLU54       0.1160
     25  CD        28.2990   35.8470   21.8070 C.2    54  GLU54       0.3649
     26  OE1       28.3900   37.0700   22.0530 O.co2  54  GLU54      -0.2457
     27  OE2       28.8510   34.9690   22.4990 O.co2  54  GLU54      -0.2457
     28  N         20.9440   42.8120   19.9920 N.3    66  LYS66      -0.1245
     29  CA        22.0540   42.9880   19.0840 C.3    66  LYS66       0.1561
     30  C         22.5020   41.6470   18.5440 C.2    66  LYS66       0.2260
     31  O         22.5620   40.6570   19.2820 O.2    66  LYS66      -0.2867
     32  CB        23.2520   43.6550   19.7750 C.3    66  LYS66       0.0271
     33  CG        24.4560   43.8390   18.8350 C.3    66  LYS66       0.0035
     34  CD        25.5840   44.6620   19.4570 C.3    66  LYS66       0.0206
     35  CE        26.4160   43.8520   20.4410 C.3    66  LYS66       0.1093
     36  NZ        27.5470   44.6580   21.0010 N.3    66  LYS66      -0.1314
     37  N         25.6710   39.8790   16.8780 N.3    68  VAL68      -0.1231
     38  CA        27.1010   40.1540   16.8110 C.3    68  VAL68       0.1692
     39  C         27.9080   38.8700   16.6570 C.2    68  VAL68       0.2592
     40  O         27.5380   37.8240   17.1890 O.2    68  VAL68      -0.2718
     41  CB        27.5810   40.9270   18.0770 C.3    68  VAL68       0.0266
     42  CG1       27.3290   40.0980   19.3340 C.3    68  VAL68       0.0020
     43  CG2       29.0570   41.2820   17.9510 C.3    68  VAL68       0.0020
     44  N         28.9980   38.9510   15.8980 N.am   69  ASN69      -0.1960
     45  CA        29.8680   37.8030   15.6940 C.3    69  ASN69       0.1819
     46  C         31.2500   38.1480   16.2180 C.2    69  ASN69       0.2621
     47  O         31.6020   39.3250   16.3680 O.2    69  ASN69      -0.2715
     48  CB        30.0070   37.4660   14.2100 C.3    69  ASN69       0.1195
     49  CG        30.9210   38.4330   13.4880 C.2    69  ASN69       0.2630
     50  OD1       30.5460   39.5720   13.2200 O.2    69  ASN69      -0.2716
     51  ND2       32.1380   37.9900   13.1870 N.am   69  ASN69      -0.0877
     52  N         32.0320   37.1080   16.4750 N.am   70  GLY70      -0.1954
     53  CA        33.3870   37.2810   16.9560 C.3    70  GLY70       0.1869
     54  C         34.2420   36.2120   16.3120 C.2    70  GLY70       0.2309
     55  O         34.2570   35.0650   16.7650 O.2    70  GLY70      -0.2863
     56  N         34.8940   41.7020   14.7240 N.3    82  VAL82      -0.1245
     57  CA        33.5730   41.9730   15.2810 C.3    82  VAL82       0.1561
     58  C         32.6860   42.7810   14.3350 C.2    82  VAL82       0.2260
     59  O         33.0720   43.8500   13.8620 O.2    82  VAL82      -0.2867
     60  CB        33.6810   42.7690   16.6060 C.3    82  VAL82       0.0252
     61  CG1       32.2900   43.0250   17.1810 C.3    82  VAL82       0.0019
     62  CG2       34.5440   42.0150   17.6030 C.3    82  VAL82       0.0019
     63  N         29.3850   49.3270   18.8580 N.3   105  THR105     -0.1218
     64  CA        29.8760   48.3590   19.8350 C.3   105  THR105      0.1862
     65  C         31.1980   48.8210   20.4320 C.2   105  THR105      0.2287
     66  O         31.4060   48.7240   21.6400 O.2   105  THR105     -0.2866
     67  CB        30.0500   46.9500   19.2120 C.3   105  THR105      0.1770
     68  OG1       28.7570   46.3750   18.9800 O.3   105  THR105     -0.2211
     69  CG2       30.8300   46.0350   20.1500 C.3   105  THR105      0.0375
     70  N         30.3050   51.6120   22.8990 N.3   108  ARG108     -0.1245
     71  CA        29.7030   51.2120   24.1710 C.3   108  ARG108      0.1563
     72  C         30.6470   50.3810   25.0270 C.2   108  ARG108      0.2260
     73  O         30.5380   50.3770   26.2520 O.2   108  ARG108     -0.2867
     74  CB        28.3610   50.4700   23.9670 C.3   108  ARG108      0.0307
     75  CG        28.3860   49.0930   23.2890 C.3   108  ARG108      0.0489
     76  CD        28.9720   47.9720   24.1590 C.3   108  ARG108      0.2205
     77  NE        28.2230   46.7160   24.0460 N.pl3 108  ARG108     -0.0865
     78  CZ        28.7470   45.5060   24.2350 C.cat 108  ARG108      0.5346
     79  NH1       27.9870   44.4230   24.1270 N.pl3 108  ARG108      0.1354
     80  NH2       30.0380   45.3740   24.5070 N.pl3 108  ARG108      0.1354
     81  N         35.7590   36.7890   25.8140 N.3   220  ASP220     -0.1225
     82  CA        34.3320   36.9920   26.0000 C.3   220  ASP220      0.1805
     83  C         33.4340   35.8120   25.6870 C.2   220  ASP220      0.2598
     84  O         32.2750   35.9870   25.3160 O.2   220  ASP220     -0.2718
     85  CB        33.8760   38.2160   25.2020 C.3   220  ASP220      0.1424
     86  CG        34.2980   38.1580   23.7470 C.2   220  ASP220      0.3668
     87  OD1       34.8090   37.1070   23.3010 O.co2 220  ASP220     -0.2456
     88  OD2       34.1130   39.1730   23.0490 O.co2 220  ASP220     -0.2456
     89  N         33.9680   34.6080   25.8290 N.am  221  CYS221     -0.1970
     90  CA        33.1650   33.4160   25.6070 C.3   221  CYS221      0.1712
     91  C         33.8900   32.2050   26.1720 C.2   221  CYS221      0.2296
     92  O         35.0660   32.2860   26.5250 O.2   221  CYS221     -0.2864
     93  CB        32.8620   33.2250   24.1170 C.3   221  CYS221      0.0983
     94  SG        34.1640   32.4640   23.1540 S.3   221  CYS221     -0.0798
     95  N         37.7750   31.1960   25.8020 N.3   224  LYS224     -0.1245
     96  CA        38.4610   32.3750   25.2840 C.3   224  LYS224      0.1561
     97  C         38.7370   33.3410   26.4310 C.2   224  LYS224      0.2260
     98  O         37.8620   34.1110   26.8300 O.2   224  LYS224     -0.2867
     99  CB        37.5820   33.0290   24.2190 C.3   224  LYS224      0.0271
    100  CG        38.1860   34.2320   23.5240 C.3   224  LYS224      0.0035
    101  CD        37.2030   34.7640   22.4900 C.3   224  LYS224      0.0206
    102  CE        37.6200   36.1200   21.9580 C.3   224  LYS224      0.1093
    103  NZ        36.5390   36.7060   21.1210 N.3   224  LYS224     -0.1314
    104  N         32.7150   41.0650   29.3980 N.3   286  VAL286     -0.1231
    105  CA        32.4170   40.1940   28.2680 C.3   286  VAL286      0.1692
    106  C         31.3770   40.8100   27.3450 C.2   286  VAL286      0.2592
    107  O         31.1690   40.3310   26.2290 O.2   286  VAL286     -0.2718
    108  CB        31.9070   38.8100   28.7380 C.3   286  VAL286      0.0266
    109  CG1       32.9690   38.1340   29.6080 C.3   286  VAL286      0.0020
    110  CG2       30.5990   38.9620   29.5010 C.3   286  VAL286      0.0020
    111  N         30.7410   41.8810   27.8140 N.am  287  GLY287     -0.1957
    112  CA        29.7060   42.5350   27.0360 C.3   287  GLY287      0.1869
    113  C         28.3510   42.0470   27.5100 C.2   287  GLY287      0.2309
    114  O         28.1800   40.8630   27.7950 O.2   287  GLY287     -0.2863
@<TRIPOS>BOND
     1    51    49   am
     2    50    49    2
     3    49    48    1
     4    59    58    2
     5    48    45    1
     6    58    57    1
     7    56    57    1
     8    57    60    1
     9    45    44    1
    10    45    46    1
    11    44    39   am
    12    46    47    2
    13    46    52   am
    14    54    55    2
    15    54    53    1
    16    15    14    2
    17    52    53    1
    18    60    61    1
    19    60    62    1
    20    39    38    1
    21    39    40    2
    22    12    13    1
    23    38    37    1
    24    38    41    1
    25    14    13    1
    26    13    16    1
    27    43    41    1
    28    41    42    1
    29    19    20    1
    30    22    21    2
    31    30    29    1
    32    30    31    2
    33    33    34    1
    34    33    32    1
    35    63    64    1
    36    16    17    1
    37    16    18    1
    38    68    67    1
    39    29    32    1
    40    29    28    1
    41    21    20    1
    42    67    64    1
    43    67    69    1
    44    20    23    1
    45    34    35    1
    46    64    65    1
    47    65    66    2
    48    35    36    1
    49    23    24    1
    50    24    25    1
    51   103   102    1
    52    25    26   ar
    53    25    27   ar
    54   102   101    1
    55   101   100    1
    56    70    71    1
    57    88    86   ar
    58    94    93    1
    59    75    74    1
    60    75    76    1
    61    87    86   ar
    62   100    99    1
    63    86    85    1
    64    74    71    1
    65    77    76    1
    66    77    78    2
    67    93    90    1
    68    79    78    1
    69    71    72    1
    70    99    96    1
    71    78    80    1
    72    10     9    1
    73     7     6    1
    74     7     8    1
    75     5     6    1
    76     5     2    1
    77     3     2    1
    78     3     4    2
    79    72    73    2
    80    85    82    1
    81     9     8    2
    82     9    11    1
    83    96    95    1
    84    96    97    1
    85    84    83    2
    86     2     1    1
    87    90    89    1
    88    90    91    1
    89    83    89   am
    90    83    82    1
    91    81    82    1
    92    91    92    2
    93   107   106    2
    94    97    98    2
    95   112   113    1
    96   112   111    1
    97   106   111   am
    98   106   105    1
    99   113   114    2
   100   105   108    1
   101   105   104    1
   102   108   110    1
   103   108   109    1
