@<TRIPOS>MOLECULE
tmp/1x7eB01.pdb
 178 168 0 0 0
SMALL
GASTEIGER

@<TRIPOS>ATOM
      1  N         -5.5920   33.9880   26.0330 N.3    39  MET39      -0.1245
      2  CA        -5.0580   32.6560   26.3250 C.3    39  MET39       0.1570
      3  C         -6.1650   31.6480   26.6450 C.2    39  MET39       0.2261
      4  O         -6.0710   30.4740   26.2910 O.2    39  MET39      -0.2867
      5  CB        -4.0740   32.7090   27.4920 C.3    39  MET39       0.0387
      6  CG        -2.6930   33.2060   27.1310 C.3    39  MET39       0.0595
      7  SD        -1.8490   32.2040   25.8990 S.3    39  MET39      -0.1393
      8  CE        -1.8240   30.6210   26.7010 C.3    39  MET39       0.0692
      9  N         -7.4450   30.5820   23.0410 N.3    42  LEU42      -0.1231
     10  CA        -6.6220   29.6670   22.2620 C.3    42  LEU42       0.1693
     11  C         -6.5120   28.2850   22.8600 C.2    42  LEU42       0.2592
     12  O         -6.3940   27.3110   22.1160 O.2    42  LEU42      -0.2718
     13  CB        -5.2260   30.2290   22.0890 C.3    42  LEU42       0.0284
     14  CG        -5.2420   31.5650   21.3730 C.3    42  LEU42       0.0019
     15  CD1       -3.8270   32.0770   21.2300 C.3    42  LEU42       0.0001
     16  CD2       -5.9040   31.3940   20.0200 C.3    42  LEU42       0.0001
     17  N         -6.5270   28.2020   24.1940 N.am   43  THR43      -0.1953
     18  CA        -6.4430   26.9150   24.8790 C.3    43  THR43       0.1897
     19  C         -7.8060   26.2220   24.8110 C.2    43  THR43       0.2313
     20  O         -7.8770   25.0220   24.5660 O.2    43  THR43      -0.2863
     21  CB        -5.9990   27.0740   26.3450 C.3    43  THR43       0.1794
     22  OG1       -6.9360   27.8940   27.0470 O.3    43  THR43      -0.2208
     23  CG2       -4.6330   27.7060   26.4160 C.3    43  THR43       0.0378
     24  N         -9.8830   26.5530   22.5020 N.3    45  LEU45      -0.1231
     25  CA        -9.9380   26.1170   21.1090 C.3    45  LEU45       0.1693
     26  C         -9.1070   24.8470   20.9450 C.2    45  LEU45       0.2591
     27  O         -9.6100   23.8060   20.4950 O.2    45  LEU45      -0.2718
     28  CB        -9.3930   27.2010   20.1770 C.3    45  LEU45       0.0284
     29  CG        -9.4540   26.8440   18.6840 C.3    45  LEU45       0.0019
     30  CD1      -10.8980   26.5760   18.2730 C.3    45  LEU45       0.0001
     31  CD2       -8.8570   27.9650   17.8470 C.3    45  LEU45       0.0001
     32  N         -7.8320   24.9340   21.3160 N.am   46  ALA46      -0.1980
     33  CA        -6.9360   23.7880   21.2270 C.3    46  ALA46       0.1597
     34  C         -7.5040   22.5540   21.9500 C.2    46  ALA46       0.2287
     35  O         -7.3910   21.4350   21.4510 O.2    46  ALA46      -0.2864
     36  CB        -5.5830   24.1520   21.8080 C.3    46  ALA46       0.0319
     37  N        -10.1890   21.0130   19.9610 N.3    49  GLU49      -0.1245
     38  CA        -9.6190   20.5200   18.7220 C.3    49  GLU49       0.1567
     39  C         -8.9140   19.1870   18.9430 C.2    49  GLU49       0.2260
     40  O         -8.9390   18.3100   18.0780 O.2    49  GLU49      -0.2867
     41  CB        -8.6410   21.5460   18.1380 C.3    49  GLU49       0.0388
     42  CG        -9.3000   22.5610   17.2400 C.3    49  GLU49       0.1160
     43  CD        -8.2970   23.4790   16.5700 C.2    49  GLU49       0.3649
     44  OE1       -7.8060   24.3970   17.2420 O.co2  49  GLU49      -0.2457
     45  OE2       -7.9870   23.2810   15.3730 O.co2  49  GLU49      -0.2457
     46  N          1.0020   16.7250   18.6790 N.3    79  TRP79      -0.1227
     47  CA        -0.2520   17.4380   18.8290 C.3    79  TRP79       0.1737
     48  C         -0.2070   18.9300   18.5530 C.2    79  TRP79       0.2595
     49  O         -1.0860   19.4430   17.8700 O.2    79  TRP79      -0.2718
     50  CB        -0.9020   17.1790   20.1890 C.3    79  TRP79       0.0564
     51  CG        -0.2910   17.8560   21.3460 C.ar   79  TRP79       0.0003
     52  CD1        0.5050   17.2910   22.2960 C.ar   79  TRP79       0.0946
     53  CD2       -0.4950   19.2190   21.7470 C.ar   79  TRP79       0.0152
     54  NE1        0.8020   18.2090   23.2700 N.ar   79  TRP79      -0.2442
     55  CE2        0.2050   19.4030   22.9580 C.ar   79  TRP79       0.0810
     56  CE3       -1.2020   20.3020   21.1990 C.ar   79  TRP79       0.0012
     57  CZ2        0.2180   20.6250   23.6340 C.ar   79  TRP79       0.0191
     58  CZ3       -1.1870   21.5100   21.8690 C.ar   79  TRP79       0.0001
     59  CH2       -0.4800   21.6640   23.0760 C.ar   79  TRP79       0.0015
     60  N          0.7970   19.6350   19.0580 N.am   80  LEU80      -0.1980
     61  CA         0.8660   21.0710   18.8010 C.3    80  LEU80       0.1596
     62  C          1.3120   21.3000   17.3510 C.2    80  LEU80       0.2287
     63  O          0.7660   22.1480   16.6510 O.2    80  LEU80      -0.2864
     64  CB         1.8400   21.7520   19.7640 C.3    80  LEU80       0.0297
     65  CG         1.5950   23.2300   20.0830 C.3    80  LEU80       0.0022
     66  CD1        2.8540   23.8340   20.6690 C.3    80  LEU80       0.0001
     67  CD2        1.2120   23.9930   18.8410 C.3    80  LEU80       0.0001
     68  N         -1.6360   20.9430   15.2330 N.3    83  LEU83      -0.1231
     69  CA        -2.5630   22.0660   15.4200 C.3    83  LEU83       0.1693
     70  C         -2.0570   23.2620   14.6180 C.2    83  LEU83       0.2591
     71  O         -2.8330   23.9900   13.9860 O.2    83  LEU83      -0.2718
     72  CB        -2.6450   22.5000   16.8900 C.3    83  LEU83       0.0284
     73  CG        -3.4610   21.7170   17.9100 C.3    83  LEU83       0.0019
     74  CD1       -3.3850   22.4280   19.2410 C.3    83  LEU83       0.0001
     75  CD2       -4.8910   21.5930   17.4620 C.3    83  LEU83       0.0001
     76  N         -0.7420   23.4630   14.6640 N.am   84  MET84      -0.1979
     77  CA        -0.1230   24.5680   13.9780 C.3    84  MET84       0.1605
     78  C         -0.1580   24.4550   12.4560 C.2    84  MET84       0.2287
     79  O         -0.4280   25.4390   11.7740 O.2    84  MET84      -0.2864
     80  CB         1.3060   24.7670   14.5090 C.3    84  MET84       0.0413
     81  CG         1.3490   25.6080   15.8030 C.3    84  MET84       0.0598
     82  SD         2.9280   25.6390   16.7930 S.3    84  MET84      -0.1393
     83  CE         4.0820   25.4780   15.5060 C.3    84  MET84       0.0692
     84  N         -3.6120   25.5910   11.4790 N.3    87  LEU87      -0.1245
     85  CA        -3.7720   27.0400   11.5900 C.3    87  LEU87       0.1561
     86  C         -3.0770   27.7270   10.3970 C.2    87  LEU87       0.2260
     87  O         -3.6640   28.5790    9.7270 O.2    87  LEU87      -0.2867
     88  CB        -3.1820   27.5310   12.9220 C.3    87  LEU87       0.0270
     89  CG        -2.8650   29.0270   13.1010 C.3    87  LEU87       0.0019
     90  CD1       -4.1120   29.8610   12.9490 C.3    87  LEU87       0.0001
     91  CD2       -2.2570   29.2460   14.4800 C.3    87  LEU87       0.0001
     92  N         -5.0060   27.2660    7.3250 N.3    90  ARG90      -0.1245
     93  CA        -6.2540   28.0170    7.3310 C.3    90  ARG90       0.1563
     94  C         -5.9970   29.4930    7.1630 C.2    90  ARG90       0.2260
     95  O         -6.8720   30.2320    6.7370 O.2    90  ARG90      -0.2867
     96  CB        -7.0040   27.8130    8.6430 C.3    90  ARG90       0.0307
     97  CG        -7.4040   26.3950    8.9410 C.3    90  ARG90       0.0489
     98  CD        -8.4880   26.4050    9.9970 C.3    90  ARG90       0.2205
     99  NE        -8.0400   26.9750   11.2630 N.pl3  90  ARG90      -0.0865
    100  CZ        -7.2400   26.3480   12.1180 C.cat  90  ARG90       0.5346
    101  NH1       -6.8040   25.1290   11.8310 N.pl3  90  ARG90       0.1354
    102  NH2       -6.8830   26.9310   13.2540 N.pl3  90  ARG90       0.1354
    103  N         -7.2570   31.5940   13.5620 N.3   100  PHE100     -0.1241
    104  CA        -7.3580   30.5760   14.5910 C.3   100  PHE100      0.1605
    105  C         -8.7080   29.9020   14.4980 C.2   100  PHE100      0.2264
    106  O         -8.8460   28.6890   14.7130 O.2   100  PHE100     -0.2867
    107  CB        -7.1850   31.2120   15.9630 C.3   100  PHE100      0.0534
    108  CG        -5.7560   31.4370   16.3320 C.ar  100  PHE100     -0.0203
    109  CD1       -5.0220   30.4380   16.9670 C.ar  100  PHE100     -0.0042
    110  CD2       -5.1300   32.6310   16.0120 C.ar  100  PHE100     -0.0042
    111  CE1       -3.6780   30.6250   17.2800 C.ar  100  PHE100     -0.0003
    112  CE2       -3.7880   32.8300   16.3170 C.ar  100  PHE100     -0.0003
    113  CZ        -3.0580   31.8220   16.9550 C.ar  100  PHE100     -0.0000
    114  N          4.3150   35.8800   22.9020 N.3   117  MET117     -0.1245
    115  CA         3.3500   35.3300   21.9550 C.3   117  MET117      0.1570
    116  C          3.5990   35.8420   20.5350 C.2   117  MET117      0.2261
    117  O          3.5180   35.1170   19.5510 O.2   117  MET117     -0.2867
    118  CB         1.9430   35.7140   22.4170 C.3   117  MET117      0.0387
    119  CG         0.8500   35.1000   21.5390 C.3   117  MET117      0.0595
    120  SD         0.9290   33.3050   21.5020 S.3   117  MET117     -0.1393
    121  CE        -0.3560   32.9730   22.7160 C.3   117  MET117      0.0692
    122  N          6.2120   33.9740   18.3000 N.3   120  ILE120     -0.1231
    123  CA         5.6670   32.8020   17.6250 C.3   120  ILE120      0.1692
    124  C          4.8100   33.2070   16.4250 C.2   120  ILE120      0.2592
    125  O          4.8550   32.6140   15.3550 O.2   120  ILE120     -0.2718
    126  CB         4.8170   32.0170   18.6260 C.3   120  ILE120      0.0266
    127  CG1        5.6700   31.5720   19.8170 C.3   120  ILE120      0.0019
    128  CG2        4.2580   30.7520   17.9500 C.3   120  ILE120      0.0020
    129  CD1        4.9890   30.4820   20.6480 C.3   120  ILE120      0.0001
    130  N          3.9750   34.2390   16.6500 N.am  121  PHE121     -0.1976
    131  CA         3.0620   34.6770   15.6020 C.3   121  PHE121      0.1639
    132  C          3.8040   34.9470   14.2930 C.2   121  PHE121      0.2290
    133  O          3.3880   34.5530   13.2120 O.2   121  PHE121     -0.2864
    134  CB         2.3840   35.9630   16.0770 C.3   121  PHE121      0.0560
    135  CG         1.0300   35.6530   16.6410 C.ar  121  PHE121     -0.0200
    136  CD1        0.8920   34.6310   17.5720 C.ar  121  PHE121     -0.0042
    137  CD2       -0.0630   36.4280   16.2860 C.ar  121  PHE121     -0.0042
    138  CE1       -0.3430   34.3940   18.1580 C.ar  121  PHE121     -0.0003
    139  CE2       -1.2990   36.1850   16.8780 C.ar  121  PHE121     -0.0003
    140  CZ        -1.4430   35.1710   17.8170 C.ar  121  PHE121     -0.0000
    141  N          4.6330   31.7260   12.6020 N.3   124  LEU124     -0.1245
    142  CA         3.4360   31.1370   12.0130 C.3   124  LEU124      0.1561
    143  C          3.0810   31.8710   10.7310 C.2   124  LEU124      0.2260
    144  O          2.8500   31.2500    9.6880 O.2   124  LEU124     -0.2867
    145  CB         2.2770   31.1910   13.0070 C.3   124  LEU124      0.0270
    146  CG         2.4850   30.1930   14.1510 C.3   124  LEU124      0.0019
    147  CD1        1.4360   30.3570   15.2360 C.3   124  LEU124      0.0001
    148  CD2        2.4460   28.7810   13.5630 C.3   124  LEU124      0.0001
    149  N          6.3610   27.0130   21.1180 N.3   210  GLY210     -0.1225
    150  CA         5.0270   27.2030   21.6480 C.3   210  GLY210      0.1811
    151  C          4.8180   26.3720   22.8910 C.2   210  GLY210      0.2280
    152  O          4.2180   26.8230   23.8560 O.2   210  GLY210     -0.2866
    153  N          6.3020   27.9640   25.5470 N.3   213  HIS213     -0.1226
    154  CA         5.5260   29.1550   25.8360 C.3   213  HIS213      0.1752
    155  C          4.2570   28.8170   26.5930 C.2   213  HIS213      0.2595
    156  O          3.9050   29.4930   27.5500 O.2   213  HIS213     -0.2718
    157  CB         5.1760   29.8860   24.5430 C.3   213  HIS213      0.0759
    158  CG         4.2390   31.0350   24.7390 C.ar  213  HIS213      0.0818
    159  ND1        2.8730   30.8760   24.8110 N.ar  213  HIS213     -0.2268
    160  CD2        4.4760   32.3560   24.9180 C.ar  213  HIS213      0.1154
    161  CE1        2.3080   32.0490   25.0280 C.ar  213  HIS213      0.1986
    162  NE2        3.2590   32.9640   25.0990 N.ar  213  HIS213     -0.2212
    163  N          3.5580   27.7800   26.1480 N.am  214  LEU214     -0.1980
    164  CA         2.3350   27.3550   26.8150 C.3   214  LEU214      0.1596
    165  C          2.6910   27.0520   28.2620 C.2   214  LEU214      0.2287
    166  O          2.0220   27.4990   29.1920 O.2   214  LEU214     -0.2864
    167  CB         1.7840   26.0850   26.1700 C.3   214  LEU214      0.0297
    168  CG         0.5870   25.4670   26.8900 C.3   214  LEU214      0.0022
    169  CD1       -0.6780   26.2910   26.6360 C.3   214  LEU214      0.0001
    170  CD2        0.4090   24.0650   26.3890 C.3   214  LEU214      0.0001
    171  N         -5.8760   19.0520   27.1510 N.3   229  LEU229     -0.1245
    172  CA        -4.7760   19.8950   26.6900 C.3   229  LEU229      0.1561
    173  C         -3.6240   19.9470   27.6850 C.2   229  LEU229      0.2260
    174  O         -2.4830   20.2040   27.3090 O.2   229  LEU229     -0.2867
    175  CB        -5.2680   21.3150   26.4210 C.3   229  LEU229      0.0270
    176  CG        -4.1600   22.3530   26.2130 C.3   229  LEU229      0.0019
    177  CD1       -3.3210   22.0240   24.9870 C.3   229  LEU229      0.0001
    178  CD2       -4.7940   23.7150   26.0810 C.3   229  LEU229      0.0001
@<TRIPOS>BOND
     1    95    94    2
     2    94    93    1
     3    92    93    1
     4    93    96    1
     5    96    97    1
     6    97    98    1
     7   144   143    2
     8    87    86    2
     9    98    99    1
    10    86    85    1
    11   143   142    1
    12    99   100    2
    13    84    85    1
    14    85    88    1
    15    79    78    2
    16   101   100    1
    17   142   141    1
    18   142   145    1
    19   100   102    1
    20    78    77    1
    21    88    89    1
    22    90    89    1
    23   145   146    1
    24    89    91    1
    25   133   132    2
    26   103   104    1
    27   148   146    1
    28    77    80    1
    29    77    76    1
    30    71    70    2
    31   146   147    1
    32   132   131    1
    33   105   104    1
    34   105   106    2
    35    80    81    1
    36   104   107    1
    37    70    76   am
    38    70    69    1
    39    68    69    1
    40   125   124    2
    41    45    43   ar
    42    69    72    1
    43    83    82    1
    44   131   134    1
    45   131   130    1
    46    81    82    1
    47   107   108    1
    48   110   112   ar
    49   110   108   ar
    50   134   135    1
    51   137   135   ar
    52   137   139   ar
    53   112   113   ar
    54   108   109   ar
    55   124   130   am
    56   124   123    1
    57    43    42    1
    58    43    44   ar
    59   135   136   ar
    60    63    62    2
    61   139   140   ar
    62    72    73    1
    63   113   111   ar
    64   109   111   ar
    65    42    41    1
    66    62    61    1
    67    75    73    1
    68   136   138   ar
    69   123   122    1
    70   123   126    1
    71   140   138   ar
    72    31    29    1
    73    49    48    2
    74    73    74    1
    75   128   126    1
    76    40    39    2
    77    41    38    1
    78    30    29    1
    79    48    47    1
    80    48    60   am
    81   126   127    1
    82    46    47    1
    83    29    28    1
    84    38    39    1
    85    38    37    1
    86    61    60    1
    87    61    64    1
    88    47    50    1
    89    67    65    1
    90   117   116    2
    91    64    65    1
    92   127   129    1
    93    16    14    1
    94    65    66    1
    95    28    25    1
    96    50    51    1
    97    27    26    2
    98   116   115    1
    99    26    25    1
   100    26    32   am
   101    25    24    1
   102   149   150    1
   103    56    53   ar
   104    56    58   ar
   105    33    32    1
   106    33    36    1
   107    33    34    1
   108    15    14    1
   109    51    53   ar
   110    51    52   ar
   111    14    13    1
   112    35    34    2
   113   120   119    1
   114   120   121    1
   115   119   118    1
   116   150   151    1
   117    53    55   ar
   118    58    59   ar
   119   115   118    1
   120   115   114    1
   121    13    10    1
   122    12    11    2
   123    10    11    1
   124    10     9    1
   125    52    54   ar
   126    11    17   am
   127   151   152    2
   128    55    54   ar
   129    55    57   ar
   130    59    57   ar
   131    17    18    1
   132   157   158    1
   133   157   154    1
   134    20    19    2
   135   158   159   ar
   136   158   160   ar
   137   159   161   ar
   138    19    18    1
   139    18    21    1
   140   160   162   ar
   141   177   176    1
   142   161   162   ar
   143   153   154    1
   144   154   155    1
   145     7     8    1
   146     7     6    1
   147     1     2    1
   148   178   176    1
   149   163   155   am
   150   163   164    1
   151   167   164    1
   152   167   168    1
   153   176   175    1
   154     4     3    2
   155     2     3    1
   156     2     5    1
   157    21    23    1
   158    21    22    1
   159   170   168    1
   160   175   172    1
   161   155   156    2
   162   169   168    1
   163   172   171    1
   164   172   173    1
   165   164   165    1
   166     6     5    1
   167   174   173    2
   168   165   166    2
