@<TRIPOS>MOLECULE
tmp/1x7jB01.pdb
 164 152 0 0 0
SMALL
GASTEIGER

@<TRIPOS>ATOM
      1  N         31.5380   23.8720    4.7550 N.3    33  MET33      -0.1245
      2  CA        31.7480   25.1590    5.4080 C.3    33  MET33       0.1570
      3  C         31.6840   26.2610    4.3670 C.2    33  MET33       0.2261
      4  O         31.2450   27.3770    4.6460 O.2    33  MET33      -0.2867
      5  CB        33.1080   25.1950    6.1100 C.3    33  MET33       0.0387
      6  CG        33.1620   24.4040    7.4090 C.3    33  MET33       0.0595
      7  SD        31.9830   25.0180    8.6330 S.3    33  MET33      -0.1393
      8  CE        30.5760   24.0010    8.2470 C.3    33  MET33       0.0692
      9  N         27.9080   26.7020    3.5330 N.3    36  LEU36      -0.1231
     10  CA        27.1940   27.3720    4.6120 C.3    36  LEU36       0.1693
     11  C         27.5960   28.8370    4.7310 C.2    36  LEU36       0.2592
     12  O         26.7590   29.6920    5.0240 O.2    36  LEU36      -0.2718
     13  CB        27.4440   26.6540    5.9420 C.3    36  LEU36       0.0284
     14  CG        26.9360   25.2110    6.0180 C.3    36  LEU36       0.0019
     15  CD1       27.2890   24.6050    7.3630 C.3    36  LEU36       0.0001
     16  CD2       25.4330   25.1930    5.8070 C.3    36  LEU36       0.0001
     17  N         28.8750   29.1250    4.4960 N.am   37  THR37      -0.1953
     18  CA        29.3650   30.4930    4.5890 C.3    37  THR37       0.1897
     19  C         28.8850   31.3280    3.4090 C.2    37  THR37       0.2313
     20  O         28.4150   32.4530    3.5900 O.2    37  THR37      -0.2863
     21  CB        30.9050   30.5340    4.6770 C.3    37  THR37       0.1794
     22  OG1       31.4720   29.6710    3.6850 O.3    37  THR37      -0.2208
     23  CG2       31.3640   30.0750    6.0500 C.3    37  THR37       0.0378
     24  N         26.2720   30.8470    1.5980 N.3    39  LEU39      -0.1231
     25  CA        24.8390   31.0390    1.7820 C.3    39  LEU39       0.1693
     26  C         24.5460   32.1410    2.7980 C.2    39  LEU39       0.2591
     27  O         23.7160   33.0180    2.5490 O.2    39  LEU39      -0.2718
     28  CB        24.1780   29.7330    2.2320 C.3    39  LEU39       0.0284
     29  CG        22.6890   29.8660    2.5580 C.3    39  LEU39       0.0019
     30  CD1       21.9400   30.3170    1.3090 C.3    39  LEU39       0.0001
     31  CD2       22.1410   28.5420    3.0770 C.3    39  LEU39       0.0001
     32  N         25.2290   32.0900    3.9390 N.am   40  ALA40      -0.1980
     33  CA        25.0500   33.0870    4.9890 C.3    40  ALA40       0.1597
     34  C         25.3340   34.4780    4.4350 C.2    40  ALA40       0.2287
     35  O         24.5640   35.4140    4.6490 O.2    40  ALA40      -0.2864
     36  CB        25.9830   32.7900    6.1600 C.3    40  ALA40       0.0319
     37  N         22.4550   35.6070    2.3350 N.3    43  GLU43      -0.1245
     38  CA        21.2660   35.8820    3.1290 C.3    43  GLU43       0.1567
     39  C         21.4390   37.1490    3.9570 C.2    43  GLU43       0.2260
     40  O         20.4820   37.8950    4.1570 O.2    43  GLU43      -0.2867
     41  CB        20.9320   34.6930    4.0350 C.3    43  GLU43       0.0388
     42  CG        20.2320   33.5520    3.3100 C.3    43  GLU43       0.1160
     43  CD        19.8810   32.3980    4.2340 C.2    43  GLU43       0.3649
     44  OE1       20.7920   31.6390    4.6230 O.co2  43  GLU43      -0.2457
     45  OE2       18.6890   32.2530    4.5790 O.co2  43  GLU43      -0.2457
     46  N         22.9670   35.7600   13.3280 N.3    74  MET74      -0.1245
     47  CA        22.9530   34.3040   13.2400 C.3    74  MET74       0.1570
     48  C         21.6510   33.7120   13.7770 C.2    74  MET74       0.2261
     49  O         21.1680   32.6960   13.2770 O.2    74  MET74      -0.2867
     50  CB        24.1400   33.7110   14.0040 C.3    74  MET74       0.0387
     51  CG        24.2440   32.1980   13.9050 C.3    74  MET74       0.0595
     52  SD        24.4770   31.5860   12.2170 S.3    74  MET74      -0.1393
     53  CE        26.2630   31.4820   12.1400 C.3    74  MET74       0.0692
     54  N         19.1060   34.1090   11.0560 N.3    77  LEU77      -0.1231
     55  CA        19.3380   33.1430    9.9910 C.3    77  LEU77       0.1693
     56  C         18.8010   31.7670   10.3890 C.2    77  LEU77       0.2591
     57  O         18.0860   31.1200    9.6200 O.2    77  LEU77      -0.2718
     58  CB        20.8350   33.0310    9.6800 C.3    77  LEU77       0.0284
     59  CG        21.5440   34.2080    8.9960 C.3    77  LEU77       0.0019
     60  CD1       23.0190   33.8780    8.8090 C.3    77  LEU77       0.0001
     61  CD2       20.8970   34.4900    7.6420 C.3    77  LEU77       0.0001
     62  N         19.1410   31.3260   11.5950 N.am   78  MET78      -0.1979
     63  CA        18.7070   30.0170   12.0710 C.3    78  MET78       0.1605
     64  C         17.2070   29.9000   12.3180 C.2    78  MET78       0.2287
     65  O         16.6390   28.8150   12.2030 O.2    78  MET78      -0.2864
     66  CB        19.4900   29.6320   13.3320 C.3    78  MET78       0.0413
     67  CG        20.9890   29.5050   13.0870 C.3    78  MET78       0.0598
     68  SD        21.9030   28.8680   14.4980 S.3    78  MET78      -0.1393
     69  CE        20.9540   29.5790   15.8010 C.3    78  MET78       0.0692
     70  N         16.0120   29.1510    8.9980 N.3    81  LEU81      -0.1245
     71  CA        16.3300   27.7680    8.6590 C.3    81  LEU81       0.1561
     72  C         15.2880   26.8200    9.2330 C.2    81  LEU81       0.2260
     73  O         14.6880   26.0290    8.5070 O.2    81  LEU81      -0.2867
     74  CB        17.7080   27.3940    9.2060 C.3    81  LEU81       0.0270
     75  CG        18.0990   25.9130    9.1580 C.3    81  LEU81       0.0019
     76  CD1       17.9710   25.3730    7.7340 C.3    81  LEU81       0.0001
     77  CD2       19.5320   25.7620    9.6670 C.3    81  LEU81       0.0001
     78  N         11.9340   26.9610    7.4870 N.3    84  ARG84      -0.1245
     79  CA        11.9880   26.3000    6.1870 C.3    84  ARG84       0.1563
     80  C         11.9920   24.7770    6.3170 C.2    84  ARG84       0.2260
     81  O         11.5900   24.0720    5.3950 O.2    84  ARG84      -0.2867
     82  CB        13.2410   26.7320    5.4090 C.3    84  ARG84       0.0307
     83  CG        13.2720   28.1930    5.0040 C.3    84  ARG84       0.0489
     84  CD        14.2500   28.4300    3.8580 C.3    84  ARG84       0.2205
     85  NE        15.6520   28.2400    4.2300 N.pl3  84  ARG84      -0.0865
     86  CZ        16.3410   29.0680    5.0100 C.cat  84  ARG84       0.5346
     87  NH1       15.7640   30.1490    5.5150 N.pl3  84  ARG84       0.1354
     88  NH2       17.6170   28.8270    5.2660 N.pl3  84  ARG84       0.1354
     89  N         18.5600   24.3690    4.2930 N.3    94  PHE94      -0.1241
     90  CA        19.2940   25.6270    4.2490 C.3    94  PHE94       0.1605
     91  C         18.8690   26.4110    3.0180 C.2    94  PHE94       0.2264
     92  O         18.7530   27.6350    3.0580 O.2    94  PHE94      -0.2867
     93  CB        20.8050   25.3840    4.2170 C.3    94  PHE94       0.0534
     94  CG        21.3640   24.8850    5.5160 C.ar   94  PHE94      -0.0203
     95  CD1       21.2960   23.5350    5.8480 C.ar   94  PHE94      -0.0042
     96  CD2       21.9540   25.7700    6.4150 C.ar   94  PHE94      -0.0042
     97  CE1       21.8080   23.0720    7.0550 C.ar   94  PHE94      -0.0003
     98  CE2       22.4680   25.3170    7.6270 C.ar   94  PHE94      -0.0003
     99  CZ        22.3950   23.9630    7.9470 C.ar   94  PHE94      -0.0000
    100  N         30.1610   20.0920   14.1840 N.3   111  ILE111     -0.1245
    101  CA        28.9850   20.7870   13.6780 C.3   111  ILE111      0.1561
    102  C         27.7210   19.9630   13.9000 C.2   111  ILE111      0.2260
    103  O         26.6140   20.5050   13.9230 O.2   111  ILE111     -0.2867
    104  CB        29.1190   21.1100   12.1730 C.3   111  ILE111      0.0252
    105  CG1       28.2160   22.2950   11.8220 C.3   111  ILE111      0.0019
    106  CG2       28.7310   19.9010   11.3390 C.3   111  ILE111      0.0019
    107  CD1       28.3820   22.8090   10.4110 C.3   111  ILE111      0.0001
    108  N         25.4420   21.1400   16.6410 N.3   114  ILE114     -0.1231
    109  CA        24.5330   22.1990   16.2460 C.3   114  ILE114      0.1692
    110  C         23.3480   21.7540   15.3870 C.2   114  ILE114      0.2592
    111  O         22.2440   22.2740   15.4870 O.2   114  ILE114     -0.2718
    112  CB        25.4000   23.2540   15.4580 C.3   114  ILE114      0.0266
    113  CG1       26.5370   23.7150   16.3740 C.3   114  ILE114      0.0019
    114  CG2       24.5740   24.4390   14.9760 C.3   114  ILE114      0.0020
    115  CD1       27.5810   24.5690   15.6890 C.3   114  ILE114      0.0001
    116  N         23.6710   20.7970   14.5010 N.am  115  PHE115     -0.1976
    117  CA        22.6080   20.2560   13.6760 C.3   115  PHE115      0.1639
    118  C         21.5740   19.5950   14.5550 C.2   115  PHE115      0.2290
    119  O         20.3860   19.6520   14.2320 O.2   115  PHE115     -0.2864
    120  CB        23.2120   19.2900   12.7030 C.3   115  PHE115      0.0560
    121  CG        23.8230   19.9420   11.4990 C.ar  115  PHE115     -0.0200
    122  CD1       24.5770   21.1050   11.6260 C.ar  115  PHE115     -0.0042
    123  CD2       23.6650   19.3830   10.2390 C.ar  115  PHE115     -0.0042
    124  CE1       25.1630   21.6990   10.5180 C.ar  115  PHE115     -0.0003
    125  CE2       24.2480   19.9700    9.1230 C.ar  115  PHE115     -0.0003
    126  CZ        24.9980   21.1300    9.2640 C.ar  115  PHE115     -0.0000
    127  N         19.4180   22.2410   16.3240 N.3   118  LEU118     -0.1245
    128  CA        18.6370   22.9480   15.3120 C.3   118  LEU118      0.1561
    129  C         17.4330   22.0940   14.9380 C.2   118  LEU118      0.2260
    130  O         16.3330   22.6040   14.7400 O.2   118  LEU118     -0.2867
    131  CB        19.4810   23.2240   14.0640 C.3   118  LEU118      0.0270
    132  CG        20.4970   24.3660   14.1550 C.3   118  LEU118      0.0019
    133  CD1       21.4040   24.3650   12.9330 C.3   118  LEU118      0.0001
    134  CD2       19.7530   25.6900   14.2760 C.3   118  LEU118      0.0001
    135  N         26.7270   28.3020   17.1090 N.3   200  GLY200     -0.1225
    136  CA        26.9830   28.4020   15.6860 C.3   200  GLY200      0.1811
    137  C         28.1210   29.3700   15.4110 C.2   200  GLY200      0.2280
    138  O         29.0550   29.0500   14.6810 O.2   200  GLY200     -0.2866
    139  N         31.4370   28.2420   16.6750 N.3   203  HIS203     -0.1226
    140  CA        31.9480   27.1930   15.7970 C.3   203  HIS203      0.1752
    141  C         32.5000   27.7660   14.4960 C.2   203  HIS203      0.2595
    142  O         33.3800   27.1720   13.8750 O.2   203  HIS203     -0.2718
    143  CB        30.8410   26.1780   15.4930 C.3   203  HIS203      0.0759
    144  CG        31.2660   25.0690   14.5800 C.ar  203  HIS203      0.0818
    145  ND1       31.4420   25.2450   13.2250 N.ar  203  HIS203     -0.2268
    146  CD2       31.5590   23.7700   14.8300 C.ar  203  HIS203      0.1154
    147  CE1       31.8240   24.1050   12.6780 C.ar  203  HIS203      0.1986
    148  NE2       31.9030   23.1930   13.6310 N.ar  203  HIS203     -0.2212
    149  N         31.9780   28.9180   14.0890 N.am  204  LEU204     -0.1980
    150  CA        32.4250   29.5760   12.8640 C.3   204  LEU204      0.1596
    151  C         33.7360   30.3170   13.1030 C.2   204  LEU204      0.2287
    152  O         34.6390   30.2830   12.2640 O.2   204  LEU204     -0.2864
    153  CB        31.3630   30.5610   12.3700 C.3   204  LEU204      0.0297
    154  CG        31.7460   31.4480   11.1840 C.3   204  LEU204      0.0022
    155  CD1       32.1160   30.5860    9.9760 C.3   204  LEU204      0.0001
    156  CD2       30.5790   32.3770   10.8550 C.3   204  LEU204      0.0001
    157  N         36.3550   27.6760   13.1350 N.3   207  MET207     -0.1245
    158  CA        36.7150   27.2030   11.8010 C.3   207  MET207      0.1570
    159  C         37.5440   28.2380   11.0340 C.2   207  MET207      0.2261
    160  O         38.3890   27.8820   10.2150 O.2   207  MET207     -0.2867
    161  CB        35.4580   26.8530   10.9970 C.3   207  MET207      0.0387
    162  CG        34.6730   25.6510   11.5120 C.3   207  MET207      0.0595
    163  SD        35.5610   24.0860   11.3890 S.3   207  MET207     -0.1393
    164  CE        35.8680   23.7260   13.1010 C.3   207  MET207      0.0692
@<TRIPOS>BOND
     1    30    29    1
     2    24    25    1
     3    25    28    1
     4    25    26    1
     5    28    29    1
     6    37    38    1
     7    27    26    2
     8    29    31    1
     9    26    32   am
    10    91    92    2
    11    91    90    1
    12    38    39    1
    13    38    41    1
    14    42    41    1
    15    42    43    1
    16    19    20    2
    17    19    18    1
    18     9    10    1
    19    22    21    1
    20    84    85    1
    21    84    83    1
    22    32    33    1
    23    39    40    2
    24    93    90    1
    25    93    94    1
    26    85    86    2
    27    43    45   ar
    28    43    44   ar
    29    90    89    1
    30     3     4    2
    31     3     2    1
    32    34    35    2
    33    34    33    1
    34    17    18    1
    35    17    11   am
    36    18    21    1
    37    10    11    1
    38    10    13    1
    39    21    23    1
    40    11    12    2
    41     1     2    1
    42    33    36    1
    43    83    82    1
    44    86    88    1
    45    86    87    1
    46    81    80    2
    47     2     5    1
    48    82    79    1
    49    94    95   ar
    50    94    96   ar
    51    16    14    1
    52    95    97   ar
    53    13    14    1
    54    14    15    1
    55     5     6    1
    56    79    80    1
    57    79    78    1
    58    96    98   ar
    59    97    99   ar
    60     6     7    1
    61    98    99   ar
    62    61    59    1
    63    76    75    1
    64     8     7    1
    65    73    72    2
    66    71    70    1
    67    71    74    1
    68    71    72    1
    69    60    59    1
    70    59    58    1
    71   125   126   ar
    72   125   123   ar
    73    75    74    1
    74    75    77    1
    75   126   124   ar
    76    57    56    2
    77    58    55    1
    78   155   154    1
    79    55    56    1
    80    55    54    1
    81   160   159    2
    82   123   121   ar
    83    56    62   am
    84   107   105    1
    85   124   122   ar
    86   156   154    1
    87   161   162    1
    88   161   158    1
    89   159   158    1
    90   154   153    1
    91   106   104    1
    92   163   162    1
    93   163   164    1
    94   121   122   ar
    95   121   120    1
    96    62    63    1
    97   158   157    1
    98   105   104    1
    99    63    64    1
   100    63    66    1
   101    53    52    1
   102   104   101    1
   103    65    64    2
   104    52    51    1
   105   152   151    2
   106   153   150    1
   107   147   145   ar
   108   147   148   ar
   109   120   117    1
   110   150   151    1
   111   150   149    1
   112   133   132    1
   113    67    66    1
   114    67    68    1
   115   145   144   ar
   116    47    46    1
   117    47    48    1
   118    47    50    1
   119    49    48    2
   120   148   146   ar
   121   117   116    1
   122   117   118    1
   123   101   102    1
   124   101   100    1
   125   142   141    2
   126   102   103    2
   127    51    50    1
   128   131   132    1
   129   131   128    1
   130   149   141   am
   131   132   134    1
   132   119   118    2
   133   141   140    1
   134    68    69    1
   135   116   110   am
   136   144   146   ar
   137   144   143    1
   138   138   137    2
   139   130   129    2
   140   129   128    1
   141   114   112    1
   142   128   127    1
   143   110   111    2
   144   110   109    1
   145   137   136    1
   146   112   109    1
   147   112   113    1
   148   143   140    1
   149   136   135    1
   150   115   113    1
   151   140   139    1
   152   109   108    1
