@<TRIPOS>MOLECULE
tmp/1x7jB00.pdb
 120 111 0 0 0
SMALL
GASTEIGER

@<TRIPOS>ATOM
      1  N         22.7830   39.8360    3.1300 N.3    45  VAL45      -0.1245
      2  CA        22.4600   40.9890    2.3010 C.3    45  VAL45       0.1561
      3  C         20.9520   41.2090    2.2810 C.2    45  VAL45       0.2260
      4  O         20.4810   42.3400    2.3980 O.2    45  VAL45      -0.2867
      5  CB        22.9640   40.8040    0.8520 C.3    45  VAL45       0.0252
      6  CG1       22.5700   42.0030    0.0020 C.3    45  VAL45       0.0019
      7  CG2       24.4750   40.6300    0.8490 C.3    45  VAL45       0.0019
      8  N         19.5010   42.5620    5.5980 N.3    48  ILE48      -0.1231
      9  CA        19.6490   44.0030    5.7710 C.3    48  ILE48       0.1692
     10  C         18.4680   44.7180    5.1300 C.2    48  ILE48       0.2592
     11  O         17.9260   45.6600    5.7020 O.2    48  ILE48      -0.2718
     12  CB        20.9600   44.5180    5.1450 C.3    48  ILE48       0.0266
     13  CG1       22.1500   43.7550    5.7300 C.3    48  ILE48       0.0019
     14  CG2       21.1200   46.0100    5.4130 C.3    48  ILE48       0.0020
     15  CD1       22.1870   43.7500    7.2330 C.3    48  ILE48       0.0001
     16  N         18.0640   44.2630    3.9460 N.am   49  SER49      -0.1952
     17  CA        16.9210   44.8550    3.2570 C.3    49  SER49       0.1924
     18  C         15.6620   44.5900    4.0740 C.2    49  SER49       0.2314
     19  O         14.8380   45.4800    4.2630 O.2    49  SER49      -0.2863
     20  CB        16.7480   44.2450    1.8650 C.3    49  SER49       0.2116
     21  OG        17.9040   44.4350    1.0770 O.3    49  SER49      -0.2180
     22  N         15.2830   46.9830    7.1050 N.3    52  LYS52      -0.1245
     23  CA        14.8820   48.3480    6.7700 C.3    52  LYS52       0.1561
     24  C         13.3830   48.4670    6.5120 C.2    52  LYS52       0.2260
     25  O         12.8420   49.5720    6.4770 O.2    52  LYS52      -0.2867
     26  CB        15.6600   48.8550    5.5460 C.3    52  LYS52       0.0271
     27  CG        17.1730   48.8680    5.7360 C.3    52  LYS52       0.0035
     28  CD        17.8970   49.6050    4.6020 C.3    52  LYS52       0.0206
     29  CE        17.6240   51.1080    4.6450 C.3    52  LYS52       0.1093
     30  NZ        18.4010   51.8730    3.6180 N.3    52  LYS52      -0.1314
     31  N         12.2300   50.8430   12.0880 N.3    57  PHE57      -0.1241
     32  CA        13.6210   50.4280   12.2260 C.3    57  PHE57       0.1605
     33  C         14.6120   51.4590   11.6890 C.2    57  PHE57       0.2264
     34  O         15.6360   51.7310   12.3220 O.2    57  PHE57      -0.2867
     35  CB        13.8630   49.0950   11.5120 C.3    57  PHE57       0.0534
     36  CG        15.2730   48.5860   11.6520 C.ar   57  PHE57      -0.0203
     37  CD1       15.7040   48.0110   12.8460 C.ar   57  PHE57      -0.0042
     38  CD2       16.1790   48.7080   10.6000 C.ar   57  PHE57      -0.0042
     39  CE1       17.0190   47.5640   12.9930 C.ar   57  PHE57      -0.0003
     40  CE2       17.4930   48.2680   10.7310 C.ar   57  PHE57      -0.0003
     41  CZ        17.9160   47.6920   11.9360 C.ar   57  PHE57      -0.0000
     42  N         21.6460   55.1270   13.3920 N.3    62  LEU62      -0.1245
     43  CA        22.4420   54.1780   12.6270 C.3    62  LEU62       0.1561
     44  C         23.1620   53.1840   13.5190 C.2    62  LEU62       0.2260
     45  O         23.2800   52.0060   13.1820 O.2    62  LEU62      -0.2867
     46  CB        23.4880   54.8810   11.7610 C.3    62  LEU62       0.0270
     47  CG        24.2480   53.8180   10.9520 C.3    62  LEU62       0.0019
     48  CD1       23.3920   53.3890    9.7720 C.3    62  LEU62       0.0001
     49  CD2       25.5750   54.3400   10.4770 C.3    62  LEU62       0.0001
     50  N         20.9090   50.4300   14.8220 N.3    65  GLN65      -0.1231
     51  CA        20.6580   49.5000   13.7290 C.3    65  GLN65       0.1698
     52  C         21.8210   48.5230   13.6020 C.2    65  GLN65       0.2592
     53  O         21.6220   47.3130   13.4920 O.2    65  GLN65      -0.2718
     54  CB        20.4750   50.2610   12.4120 C.3    65  GLN65       0.0381
     55  CG        19.1690   51.0420   12.3180 C.3    65  GLN65       0.0905
     56  CD        19.0830   51.9010   11.0680 C.2    65  GLN65       0.2608
     57  OE1       19.2580   51.4180    9.9520 O.2    65  GLN65      -0.2717
     58  NE2       18.8030   53.1830   11.2530 N.am   65  GLN65      -0.0878
     59  N         23.0370   49.0550   13.6270 N.am   66  VAL66      -0.1980
     60  CA        24.2250   48.2240   13.5150 C.3    66  VAL66       0.1595
     61  C         24.3290   47.2590   14.6950 C.2    66  VAL66       0.2287
     62  O         24.5130   46.0570   14.5030 O.2    66  VAL66      -0.2864
     63  CB        25.5080   49.0870   13.4520 C.3    66  VAL66       0.0276
     64  CG1       26.7400   48.1940   13.4920 C.3    66  VAL66       0.0022
     65  CG2       25.5120   49.9220   12.1790 C.3    66  VAL66       0.0022
     66  N         21.7130   44.3780   14.4310 N.3    69  LEU69      -0.1231
     67  CA        22.0380   43.4040   13.4010 C.3    69  LEU69       0.1693
     68  C         23.2800   42.5730   13.7280 C.2    69  LEU69       0.2591
     69  O         23.3040   41.3660   13.4870 O.2    69  LEU69      -0.2718
     70  CB        22.1990   44.1110   12.0510 C.3    69  LEU69       0.0284
     71  CG        20.8750   44.5700   11.4330 C.3    69  LEU69       0.0019
     72  CD1       21.1270   45.3140   10.1300 C.3    69  LEU69       0.0001
     73  CD2       19.9980   43.3530   11.1830 C.3    69  LEU69       0.0001
     74  N         24.3050   43.2180   14.2750 N.am   70  GLU70      -0.1979
     75  CA        25.5420   42.5260   14.6470 C.3    70  GLU70       0.1602
     76  C         25.2740   41.5090   15.7530 C.2    70  GLU70       0.2287
     77  O         25.8670   40.4290   15.7940 O.2    70  GLU70      -0.2864
     78  CB        26.5810   43.5090   15.1940 C.3    70  GLU70       0.0415
     79  CG        27.0640   44.5830   14.2490 C.3    70  GLU70       0.1163
     80  CD        28.1300   45.4580   14.8990 C.2    70  GLU70       0.3649
     81  OE1       27.8890   45.9670   16.0180 O.co2  70  GLU70      -0.2457
     82  OE2       29.2050   45.6380   14.2910 O.co2  70  GLU70      -0.2457
     83  N         34.7140   40.0190    4.1970 N.3   217  ASP217     -0.1225
     84  CA        33.6750   40.9710    3.8310 C.3   217  ASP217      0.1805
     85  C         32.5350   41.0710    4.8440 C.2   217  ASP217      0.2597
     86  O         32.7640   41.2550    6.0390 O.2   217  ASP217     -0.2718
     87  CB        33.1160   40.6250    2.4440 C.3   217  ASP217      0.1424
     88  CG        34.1930   40.6150    1.3620 C.2   217  ASP217      0.3668
     89  OD1       34.9820   41.5860    1.2800 O.co2 217  ASP217     -0.2456
     90  OD2       34.2470   39.6360    0.5820 O.co2 217  ASP217     -0.2456
     91  N         31.3060   40.9520    4.3550 N.am  218  LEU218     -0.1979
     92  CA        30.1350   41.0550    5.2100 C.3   218  LEU218      0.1596
     93  C         30.1900   40.0490    6.3520 C.2   218  LEU218      0.2287
     94  O         30.1280   40.4240    7.5210 O.2   218  LEU218     -0.2864
     95  CB        28.8600   40.8340    4.3910 C.3   218  LEU218      0.0297
     96  CG        27.6470   41.7050    4.7410 C.3   218  LEU218      0.0022
     97  CD1       26.4240   41.1830    4.0090 C.3   218  LEU218      0.0001
     98  CD2       27.4030   41.7000    6.2310 C.3   218  LEU218      0.0001
     99  N         32.8470   40.7740    9.0550 N.3   221  GLU221     -0.1231
    100  CA        32.4530   41.9400    9.8360 C.3   221  GLU221      0.1699
    101  C         31.3860   41.5660   10.8540 C.2   221  GLU221      0.2592
    102  O         31.4600   41.9670   12.0110 O.2   221  GLU221     -0.2718
    103  CB        31.9220   43.0560    8.9240 C.3   221  GLU221      0.0402
    104  CG        32.9070   44.2020    8.6920 C.3   221  GLU221      0.1161
    105  CD        32.3170   45.3440    7.8670 C.2   221  GLU221      0.3649
    106  OE1       31.2590   45.8910    8.2550 O.co2 221  GLU221     -0.2457
    107  OE2       32.9170   45.7000    6.8300 O.co2 221  GLU221     -0.2457
    108  N         30.3960   40.7940   10.4190 N.am  222  MET222     -0.1979
    109  CA        29.3140   40.3780   11.3010 C.3   222  MET222      0.1605
    110  C         29.8190   39.4220   12.3720 C.2   222  MET222      0.2287
    111  O         29.3120   39.4110   13.4940 O.2   222  MET222     -0.2864
    112  CB        28.2020   39.7030   10.4980 C.3   222  MET222      0.0413
    113  CG        27.5760   40.5860    9.4350 C.3   222  MET222      0.0598
    114  SD        26.9230   42.1160   10.1200 S.3   222  MET222     -0.1393
    115  CE        25.2720   41.6040   10.6090 C.3   222  MET222      0.0692
    116  N         31.9250   41.6020   14.7550 N.3   225  ALA225     -0.1245
    117  CA        31.0070   42.6080   15.2730 C.3   225  ALA225      0.1562
    118  C         30.3040   42.1540   16.5450 C.2   225  ALA225      0.2260
    119  O         30.5070   40.9910   16.9540 O.2   225  ALA225     -0.2867
    120  CB        29.9830   42.9600   14.2140 C.3   225  ALA225      0.0290
@<TRIPOS>BOND
     1     6     5    1
     2    90    88   ar
     3     7     5    1
     4     5     2    1
     5    21    20    1
     6    89    88   ar
     7    88    87    1
     8    20    17    1
     9     3     2    1
    10     3     4    2
    11     2     1    1
    12    87    84    1
    13    17    16    1
    14    17    18    1
    15    30    29    1
    16    84    83    1
    17    84    85    1
    18    16    10   am
    19    97    96    1
    20    18    19    2
    21    91    85   am
    22    91    92    1
    23    95    96    1
    24    95    92    1
    25    28    29    1
    26    28    27    1
    27    96    98    1
    28    85    86    2
    29    10    11    2
    30    10     9    1
    31    12    14    1
    32    12    13    1
    33    12     9    1
    34    92    93    1
    35    26    27    1
    36    26    23    1
    37     8     9    1
    38    13    15    1
    39    93    94    2
    40    25    24    2
    41    24    23    1
    42    23    22    1
    43   107   105   ar
    44   105   106   ar
    45   105   104    1
    46   104   103    1
    47   103   100    1
    48    99   100    1
    49   113   114    1
    50   113   112    1
    51    48    47    1
    52   100   101    1
    53    57    56    2
    54   114   115    1
    55    72    71    1
    56   108   101   am
    57   108   109    1
    58    49    47    1
    59   112   109    1
    60    38    40   ar
    61    38    36   ar
    62    40    41   ar
    63   101   102    2
    64    47    46    1
    65    56    58   am
    66    56    55    1
    67    73    71    1
    68   109   110    1
    69    71    70    1
    70    35    36    1
    71    35    32    1
    72    36    37   ar
    73    33    32    1
    74    33    34    2
    75    46    43    1
    76    41    39   ar
    77    70    67    1
    78    31    32    1
    79    65    63    1
    80    55    54    1
    81   110   111    2
    82    54    51    1
    83    43    42    1
    84    43    44    1
    85    37    39   ar
    86    45    44    2
    87    67    68    1
    88    67    66    1
    89    63    64    1
    90    63    60    1
    91    69    68    2
    92    53    52    2
    93    60    59    1
    94    60    61    1
    95    52    59   am
    96    52    51    1
    97    68    74   am
    98    51    50    1
    99   120   117    1
   100    79    80    1
   101    79    78    1
   102    74    75    1
   103    82    80   ar
   104    62    61    2
   105    75    78    1
   106    75    76    1
   107   116   117    1
   108    80    81   ar
   109   117   118    1
   110    76    77    2
   111   118   119    2
