@<TRIPOS>MOLECULE
tmp/1x7nA00.pdb
 160 153 0 0 0
SMALL
GASTEIGER

@<TRIPOS>ATOM
      1  N          3.6850    2.3770   21.7350 N.3    26  ARG26      -0.1245
      2  CA         4.9520    1.8540   22.2470 C.3    26  ARG26       0.1563
      3  C          5.7100    3.0180   22.8830 C.2    26  ARG26       0.2260
      4  O          6.0840    3.9860   22.2020 O.2    26  ARG26      -0.2867
      5  CB         5.8060    1.1770   21.1510 C.3    26  ARG26       0.0307
      6  CG         5.4660   -0.3250   20.8570 C.3    26  ARG26       0.0489
      7  CD         5.4710   -1.2860   22.0530 C.3    26  ARG26       0.2205
      8  NE         4.5980   -2.4420   21.8280 N.pl3  26  ARG26      -0.0865
      9  CZ         4.2710   -3.3510   22.7520 C.cat  26  ARG26       0.5346
     10  NH1        4.7400   -3.2680   23.9950 N.pl3  26  ARG26       0.1354
     11  NH2        3.4650   -4.3600   22.4300 N.pl3  26  ARG26       0.1354
     12  N          6.5270    5.3820   19.3550 N.3    53  TYR53      -0.1241
     13  CA         5.6230    5.3070   18.2080 C.3    53  TYR53       0.1605
     14  C          4.2410    4.7940   18.5090 C.2    53  TYR53       0.2264
     15  O          4.0140    4.1210   19.4920 O.2    53  TYR53      -0.2867
     16  CB         6.2480    4.5020   17.0630 C.3    53  TYR53       0.0534
     17  CG         6.6170    3.0750   17.3530 C.ar   53  TYR53      -0.0201
     18  CD1        5.8190    2.0220   16.8920 C.ar   53  TYR53      -0.0009
     19  CD2        7.7990    2.7530   18.0200 C.ar   53  TYR53      -0.0009
     20  CE1        6.1620    0.6850   17.1330 C.ar   53  TYR53       0.0417
     21  CE2        8.1540    1.4260   18.2380 C.ar   53  TYR53       0.0417
     22  CZ         7.3410    0.4030   17.7890 C.ar   53  TYR53       0.1957
     23  OH         7.6980   -0.9030   18.0090 O.3    53  TYR53      -0.2866
     24  N          0.8350    2.9470   16.4620 N.3    55  VAL55      -0.1245
     25  CA         0.4070    2.2150   15.2770 C.3    55  VAL55       0.1561
     26  C         -1.1260    2.1270   15.2080 C.2    55  VAL55       0.2260
     27  O         -1.7800    1.8380   16.2120 O.2    55  VAL55      -0.2867
     28  CB         0.9950    0.7790   15.2760 C.3    55  VAL55       0.0252
     29  CG1        0.5130   -0.0210   14.0550 C.3    55  VAL55       0.0019
     30  CG2        2.4990    0.8060   15.3390 C.3    55  VAL55       0.0019
     31  N         -1.4540   -0.8470    7.9880 N.3    70  ALA70      -0.1245
     32  CA        -1.2220   -0.1200    9.2280 C.3    70  ALA70       0.1562
     33  C         -0.4520    1.1410    8.9540 C.2    70  ALA70       0.2260
     34  O          0.4550    1.1340    8.1370 O.2    70  ALA70      -0.2867
     35  CB        -0.4600   -0.9710   10.2060 C.3    70  ALA70       0.0290
     36  N          2.0030    3.9730   10.9610 N.3    72  THR72      -0.1218
     37  CA         2.8350    4.2310   12.1190 C.3    72  THR72       0.1862
     38  C          3.2050    5.6990   12.1550 C.2    72  THR72       0.2287
     39  O          3.5740    6.2840   11.1290 O.2    72  THR72      -0.2866
     40  CB         4.1150    3.4170   12.0270 C.3    72  THR72       0.1770
     41  OG1        3.8050    2.0280   11.8830 O.3    72  THR72      -0.2211
     42  CG2        4.9520    3.5370   13.3240 C.3    72  THR72       0.0375
     43  N         11.4480    1.7630   15.4410 N.3    86  THR86      -0.1203
     44  CA        10.5360    0.6940   15.8050 C.3    86  THR86       0.1994
     45  C         11.3020   -0.5350   16.2460 C.2    86  THR86       0.2618
     46  O         12.4550   -0.7160   15.8810 O.2    86  THR86      -0.2717
     47  CB         9.5920    0.3300   14.6390 C.3    86  THR86       0.1784
     48  OG1       10.3460   -0.1360   13.5090 O.3    86  THR86      -0.2211
     49  CG2        8.8190    1.5370   14.1640 C.3    86  THR86       0.0376
     50  N         10.6560   -1.3710   17.0500 N.am   87  LYS87      -0.1965
     51  CA        11.2830   -2.5660   17.5710 C.3    87  LYS87       0.1728
     52  C         11.9550   -3.3140   16.4300 C.2    87  LYS87       0.2617
     53  O         13.1210   -3.6480   16.5140 O.2    87  LYS87      -0.2715
     54  CB        10.2660   -3.4880   18.2580 C.3    87  LYS87       0.0311
     55  CG         9.8520   -3.0420   19.6720 C.3    87  LYS87       0.0038
     56  CD         8.7410   -3.9480   20.2530 C.3    87  LYS87       0.0206
     57  CE         8.7980   -3.9940   21.7820 C.3    87  LYS87       0.1093
     58  NZ         7.4790   -4.2630   22.4350 N.3    87  LYS87      -0.1314
     59  N         11.2080   -3.5530   15.3600 N.am   88  GLY88      -0.1940
     60  CA        11.7350   -4.2620   14.2140 C.3    88  GLY88       0.2014
     61  C         11.4080   -5.7290   14.3490 C.2    88  GLY88       0.2638
     62  O         11.3100   -6.2710   15.4610 O.2    88  GLY88      -0.2714
     63  N         11.2290   -6.3890   13.2190 N.am   89  HIS89      -0.1973
     64  CA        10.8410   -7.7860   13.2530 C.3    89  HIS89       0.1656
     65  C         11.0420   -8.4690   11.9030 C.2    89  HIS89       0.2291
     66  O         11.0650   -7.8210   10.8450 O.2    89  HIS89      -0.2864
     67  CB         9.3790   -7.9330   13.7000 C.3    89  HIS89       0.0771
     68  CG         8.4040   -7.2810   12.7750 C.ar   89  HIS89       0.0820
     69  ND1        8.1380   -5.9250   12.8100 N.ar   89  HIS89      -0.2267
     70  CD2        7.6560   -7.7920   11.7670 C.ar   89  HIS89       0.1154
     71  CE1        7.2650   -5.6320   11.8610 C.ar   89  HIS89       0.1986
     72  NE2        6.9700   -6.7440   11.2010 N.ar   89  HIS89      -0.2212
     73  N          6.5520   -6.9370    2.1990 N.3    98  GLU98      -0.1245
     74  CA         5.7970   -5.7830    2.6760 C.3    98  GLU98       0.1567
     75  C          6.0550   -4.6020    1.7530 C.2    98  GLU98       0.2260
     76  O          7.0830   -4.5540    1.0940 O.2    98  GLU98      -0.2867
     77  CB         6.2150   -5.4510    4.1190 C.3    98  GLU98       0.0388
     78  CG         5.3030   -4.4500    4.7810 C.3    98  GLU98       0.1160
     79  CD         5.0550   -4.7120    6.2560 C.2    98  GLU98       0.3649
     80  OE1        5.5160   -5.7420    6.7950 O.co2  98  GLU98      -0.2457
     81  OE2        4.3660   -3.8590    6.8560 O.co2  98  GLU98      -0.2457
     82  N          5.8720   -0.3740    2.0150 N.3   100  TYR100     -0.1241
     83  CA         5.7080    0.8390    2.8080 C.3   100  TYR100      0.1605
     84  C          5.5920    2.0420    1.8890 C.2   100  TYR100      0.2264
     85  O          6.2340    2.1080    0.8160 O.2   100  TYR100     -0.2867
     86  CB         6.9260    1.0900    3.6990 C.3   100  TYR100      0.0534
     87  CG         7.0440    0.2910    4.9730 C.ar  100  TYR100     -0.0201
     88  CD1        7.0520   -1.1030    4.9690 C.ar  100  TYR100     -0.0009
     89  CD2        7.2070    0.9400    6.1970 C.ar  100  TYR100     -0.0009
     90  CE1        7.1970   -1.8280    6.1660 C.ar  100  TYR100      0.0417
     91  CE2        7.3630    0.2190    7.3830 C.ar  100  TYR100      0.0417
     92  CZ         7.3560   -1.1430    7.3660 C.ar  100  TYR100      0.1957
     93  OH         7.4990   -1.8100    8.5660 O.3   100  TYR100     -0.2866
     94  N         12.7850   -5.8060    9.2210 N.3   137  HIS137     -0.1241
     95  CA        12.6720   -4.3900    8.9080 C.3   137  HIS137      0.1621
     96  C         12.3260   -3.5780   10.1430 C.2   137  HIS137      0.2264
     97  O         11.4540   -3.9540   10.9250 O.2   137  HIS137     -0.2867
     98  CB        11.6460   -4.1470    7.7900 C.3   137  HIS137      0.0745
     99  CG        10.4010   -4.9460    7.9410 C.ar  137  HIS137      0.0817
    100  ND1       10.3410   -6.2950    7.6480 N.ar  137  HIS137     -0.2268
    101  CD2        9.1660   -4.5930    8.3630 C.ar  137  HIS137      0.1154
    102  CE1        9.1160   -6.7330    7.8800 C.ar  137  HIS137      0.1986
    103  NE2        8.3860   -5.7200    8.3160 N.ar  137  HIS137     -0.2212
    104  N         12.0060    0.7900   11.1070 N.3   139  THR139     -0.1218
    105  CA        12.0340    2.1600   10.6170 C.3   139  THR139      0.1862
    106  C         12.6420    3.0730   11.6700 C.2   139  THR139      0.2287
    107  O         12.5810    2.7910   12.8620 O.2   139  THR139     -0.2866
    108  CB        10.6370    2.6620   10.1890 C.3   139  THR139      0.1770
    109  OG1        9.6400    2.2460   11.1310 O.3   139  THR139     -0.2211
    110  CG2       10.2370    2.0380    8.8790 C.3   139  THR139      0.0375
    111  N          4.1830    6.7790    8.0300 N.3   149  PHE149     -0.1241
    112  CA         4.0980    5.9510    6.8410 C.3   149  PHE149      0.1605
    113  C          2.9540    4.9610    6.9710 C.2   149  PHE149      0.2264
    114  O          2.3890    4.7680    8.0510 O.2   149  PHE149     -0.2867
    115  CB         5.4010    5.2020    6.6080 C.3   149  PHE149      0.0534
    116  CG         5.9040    4.4680    7.8140 C.ar  149  PHE149     -0.0203
    117  CD1        6.8980    5.0160    8.6100 C.ar  149  PHE149     -0.0042
    118  CD2        5.3820    3.2290    8.1520 C.ar  149  PHE149     -0.0042
    119  CE1        7.3560    4.3450    9.7360 C.ar  149  PHE149     -0.0003
    120  CE2        5.8410    2.5610    9.2600 C.ar  149  PHE149     -0.0003
    121  CZ         6.8260    3.1280   10.0590 C.ar  149  PHE149     -0.0000
    122  N          1.9500    0.9680    5.8160 N.3   151  ALA151     -0.1245
    123  CA         2.5040   -0.3070    5.4130 C.3   151  ALA151      0.1562
    124  C          1.4110   -1.3050    5.1030 C.2   151  ALA151      0.2260
    125  O          0.4230   -1.4010    5.8320 O.2   151  ALA151     -0.2867
    126  CB         3.4050   -0.8260    6.5010 C.3   151  ALA151      0.0290
    127  N          0.8580   -5.4160    4.2150 N.3   153  TYR153     -0.1241
    128  CA         1.5450   -6.6800    4.4390 C.3   153  TYR153      0.1605
    129  C          0.5650   -7.8340    4.4370 C.2   153  TYR153      0.2264
    130  O         -0.6150   -7.6420    4.7510 O.2   153  TYR153     -0.2867
    131  CB         2.3280   -6.6520    5.7570 C.3   153  TYR153      0.0534
    132  CG         1.5610   -6.1660    6.9690 C.ar  153  TYR153     -0.0201
    133  CD1        1.2980   -4.8010    7.1480 C.ar  153  TYR153     -0.0009
    134  CD2        1.1640   -7.0560    7.9770 C.ar  153  TYR153     -0.0009
    135  CE1        0.6030   -4.3250    8.2640 C.ar  153  TYR153      0.0417
    136  CE2        0.4910   -6.5820    9.1260 C.ar  153  TYR153      0.0417
    137  CZ         0.2070   -5.2180    9.2420 C.ar  153  TYR153      0.1957
    138  OH        -0.4610   -4.7310   10.3360 O.3   153  TYR153     -0.2866
    139  N          4.5150  -12.1100   13.0960 N.3   159  HIS159     -0.1241
    140  CA         5.6580  -11.3620   13.5980 C.3   159  HIS159      0.1621
    141  C          6.6400  -12.2290   14.4020 C.2   159  HIS159      0.2264
    142  O          6.2470  -13.0540   15.2280 O.2   159  HIS159     -0.2867
    143  CB         5.1910  -10.1970   14.4920 C.3   159  HIS159      0.0745
    144  CG         4.2960   -9.2060   13.8110 C.ar  159  HIS159      0.0817
    145  ND1        2.9340   -9.3870   13.7050 N.ar  159  HIS159     -0.2268
    146  CD2        4.5640   -8.0200   13.2160 C.ar  159  HIS159      0.1154
    147  CE1        2.3980   -8.3520   13.0810 C.ar  159  HIS159      0.1986
    148  NE2        3.3660   -7.5070   12.7730 N.ar  159  HIS159     -0.2212
    149  N          9.4440  -10.8880   16.6830 N.3   161  TYR161     -0.1241
    150  CA        10.1490   -9.7990   17.3780 C.3   161  TYR161      0.1605
    151  C         11.3610  -10.2960   18.1450 C.2   161  TYR161      0.2264
    152  O         12.3270   -9.5550   18.3610 O.2   161  TYR161     -0.2867
    153  CB         9.1950   -9.1100   18.3760 C.3   161  TYR161      0.0534
    154  CG         8.1900   -8.2320   17.6830 C.ar  161  TYR161     -0.0201
    155  CD1        6.8820   -8.6660   17.4430 C.ar  161  TYR161     -0.0009
    156  CD2        8.5570   -6.9760   17.2210 C.ar  161  TYR161     -0.0009
    157  CE1        5.9720   -7.8650   16.7950 C.ar  161  TYR161      0.0417
    158  CE2        7.6590   -6.1800   16.5650 C.ar  161  TYR161      0.0417
    159  CZ         6.3760   -6.6270   16.3490 C.ar  161  TYR161      0.1957
    160  OH         5.5000   -5.8260   15.7040 O.3   161  TYR161     -0.2866
@<TRIPOS>BOND
     1    85    84    2
     2    76    75    2
     3    75    74    1
     4    84    83    1
     5    82    83    1
     6    73    74    1
     7    74    77    1
     8    83    86    1
     9    86    87    1
    10    77    78    1
    11   127   128    1
    12   129   128    1
    13   129   130    2
    14   128   131    1
    15    78    79    1
    16    88    87   ar
    17    88    90   ar
    18    87    89   ar
    19   124   123    1
    20   124   125    2
    21   123   122    1
    22   123   126    1
    23   131   132    1
    24    90    92   ar
    25    89    91   ar
    26    79    80   ar
    27    79    81   ar
    28   115   112    1
    29   115   116    1
    30   112   113    1
    31   112   111    1
    32   132   133   ar
    33   132   134   ar
    34   113   114    2
    35   133   135   ar
    36    92    91   ar
    37    92    93    1
    38   100   102   ar
    39   100    99   ar
    40    98    99    1
    41    98    95    1
    42   116   118   ar
    43   116   117   ar
    44   102   103   ar
    45    99   101   ar
    46   134   136   ar
    47    31    32    1
    48    34    33    2
    49   118   120   ar
    50   135   137   ar
    51   103   101   ar
    52   117   119   ar
    53   110   108    1
    54    95    94    1
    55    95    96    1
    56    33    32    1
    57   136   137   ar
    58    32    35    1
    59   137   138    1
    60   120   121   ar
    61   119   121   ar
    62    96    97    2
    63   108   105    1
    64   108   109    1
    65   105   104    1
    66   105   106    1
    67    66    65    2
    68    36    37    1
    69    39    38    2
    70    72    70   ar
    71    72    71   ar
    72   106   107    2
    73    70    68   ar
    74    71    69   ar
    75    41    40    1
    76    65    64    1
    77    40    37    1
    78    40    42    1
    79    37    38    1
    80   148   147   ar
    81   148   146   ar
    82    68    69   ar
    83    68    67    1
    84   147   145   ar
    85   139   140    1
    86   146   144   ar
    87    63    64    1
    88    63    61   am
    89    64    67    1
    90    48    47    1
    91   140   141    1
    92   140   143    1
    93   145   144   ar
    94   144   143    1
    95    29    28    1
    96    49    47    1
    97    60    61    1
    98    60    59    1
    99    61    62    2
   100   141   142    2
   101    47    44    1
   102    26    25    1
   103    26    27    2
   104    28    25    1
   105    28    30    1
   106    25    24    1
   107    59    52   am
   108    43    44    1
   109   160   159    1
   110    44    45    1
   111    46    45    2
   112    45    50   am
   113   159   158   ar
   114   159   157   ar
   115    52    53    2
   116    52    51    1
   117   158   156   ar
   118   149   150    1
   119   157   155   ar
   120    18    20   ar
   121    18    17   ar
   122    50    51    1
   123    16    17    1
   124    16    13    1
   125    20    22   ar
   126   156   154   ar
   127    17    19   ar
   128   150   151    1
   129   150   153    1
   130   155   154   ar
   131    51    54    1
   132   154   153    1
   133    22    23    1
   134    22    21   ar
   135    19    21   ar
   136   151   152    2
   137    13    14    1
   138    13    12    1
   139    54    55    1
   140    14    15    2
   141    55    56    1
   142    56    57    1
   143     6     5    1
   144     6     7    1
   145     5     2    1
   146     1     2    1
   147    57    58    1
   148     8     7    1
   149     8     9    2
   150     4     3    2
   151     2     3    1
   152    11     9    1
   153     9    10    1
