@<TRIPOS>MOLECULE
tmp/1x7pA00.pdb
 157 149 0 0 0
SMALL
GASTEIGER

@<TRIPOS>ATOM
      1  N         48.5800   22.0180   78.8840 N.3   193  THR193     -0.1203
      2  CA        49.5190   20.9140   79.0400 C.3   193  THR193      0.1994
      3  C         49.3090   19.9570   77.9090 C.2   193  THR193      0.2618
      4  O         48.1770   19.6570   77.5330 O.2   193  THR193     -0.2717
      5  CB        49.3440   20.2040   80.3700 C.3   193  THR193      0.1784
      6  OG1       48.0260   19.6620   80.4740 O.3   193  THR193     -0.2211
      7  CG2       49.4500   21.2070   81.5270 C.3   193  THR193      0.0376
      8  N         50.4140   19.5040   77.3460 N.am  194  ASP194     -0.1959
      9  CA        50.3750   18.6430   76.1990 C.3   194  ASP194      0.1840
     10  C         51.7200   17.9580   76.0060 C.2   194  ASP194      0.2621
     11  O         52.7280   18.5630   76.1870 O.2   194  ASP194     -0.2715
     12  CB        50.0280   19.4580   74.9640 C.3   194  ASP194      0.1450
     13  CG        49.6660   18.5840   73.8080 C.2   194  ASP194      0.3671
     14  OD1       48.5600   17.9830   73.8780 O.co2 194  ASP194     -0.2456
     15  OD2       50.4180   18.3980   72.8220 O.co2 194  ASP194     -0.2456
     16  N         51.7160   16.6950   75.6210 N.am  195  GLU195     -0.1977
     17  CA        52.9510   15.9580   75.3250 C.3   195  GLU195      0.1602
     18  C         53.8380   16.6270   74.2700 C.2   195  GLU195      0.2287
     19  O         55.0480   16.4890   74.3030 O.2   195  GLU195     -0.2864
     20  CB        52.6190   14.5380   74.8620 C.3   195  GLU195      0.0415
     21  CG        51.7970   14.4890   73.5890 C.3   195  GLU195      0.1163
     22  CD        51.3890   13.0880   73.2120 C.2   195  GLU195      0.3649
     23  OE1       50.3120   12.6280   73.6840 O.co2 195  GLU195     -0.2457
     24  OE2       52.1470   12.4680   72.4290 O.co2 195  GLU195     -0.2457
     25  N         44.4440   20.8660   82.1040 N.3   214  ILE214     -0.1231
     26  CA        44.7040   19.4440   81.9240 C.3   214  ILE214      0.1692
     27  C         43.6210   18.9100   81.0000 C.2   214  ILE214      0.2593
     28  O         42.4390   19.1340   81.2350 O.2   214  ILE214     -0.2718
     29  CB        44.6760   18.6820   83.2700 C.3   214  ILE214      0.0266
     30  CG1       46.0030   18.7890   84.0130 C.3   214  ILE214      0.0019
     31  CG2       44.5030   17.1700   83.0270 C.3   214  ILE214      0.0020
     32  CD1       46.5080   20.1180   84.2290 C.3   214  ILE214      0.0001
     33  N         44.0200   18.2130   79.9400 N.am  215  GLY215     -0.1942
     34  CA        43.0680   17.7370   78.9500 C.3   215  GLY215      0.2014
     35  C         42.4730   16.3990   79.3400 C.2   215  GLY215      0.2639
     36  O         42.8220   15.8140   80.3720 O.2   215  GLY215     -0.2714
     37  N         41.5810   15.8920   78.5030 N.am  216  ASN216     -0.1958
     38  CA        40.9240   14.6320   78.8040 C.3   216  ASN216      0.1819
     39  C         41.6730   13.4510   78.1880 C.2   216  ASN216      0.2621
     40  O         42.5180   13.6100   77.3270 O.2   216  ASN216     -0.2715
     41  CB        39.4210   14.7080   78.4500 C.3   216  ASN216      0.1195
     42  CG        39.0270   13.8410   77.2770 C.2   216  ASN216      0.2630
     43  OD1       39.6230   13.8930   76.2430 O.2   216  ASN216     -0.2716
     44  ND2       38.0110   13.0290   77.4640 N.am  216  ASN216     -0.0877
     45  N         41.3270   12.2700   78.6640 N.am  217  GLU217     -0.1963
     46  CA        42.0680   11.0310   78.4620 C.3   217  GLU217      0.1733
     47  C         42.2230   10.6270   76.9950 C.2   217  GLU217      0.2617
     48  O         43.2890   10.2060   76.5850 O.2   217  GLU217     -0.2715
     49  CB        41.3640    9.9060   79.2470 C.3   217  GLU217      0.0429
     50  CG        41.0890   10.2400   80.7460 C.3   217  GLU217      0.1163
     51  CD        39.8900   11.2010   81.0340 C.2   217  GLU217      0.3649
     52  OE1       38.9640   11.3440   80.2070 O.co2 217  GLU217     -0.2457
     53  OE2       39.8710   11.8300   82.0840 O.co2 217  GLU217     -0.2457
     54  N         41.1670   10.7680   76.2010 N.am  218  THR218     -0.1937
     55  CA        41.2030   10.3100   74.8140 C.3   218  THR218      0.2028
     56  C         41.4030   11.4390   73.7760 C.2   218  THR218      0.2642
     57  O         41.9240   11.1830   72.7120 O.2   218  THR218     -0.2714
     58  CB        39.9490    9.4200   74.4500 C.3   218  THR218      0.1808
     59  OG1       39.2940    9.9450   73.2920 O.3   218  THR218     -0.2208
     60  CG2       38.8340    9.4160   75.5390 C.3   218  THR218      0.0379
     61  N         41.0080   12.6710   74.0860 N.am  219  ALA219     -0.1963
     62  CA        41.1070   13.8070   73.1460 C.3   219  ALA219      0.1728
     63  C         42.1510   14.8820   73.5010 C.2   219  ALA219      0.2617
     64  O         42.5280   15.6890   72.6510 O.2   219  ALA219     -0.2715
     65  CB        39.7420   14.4730   72.9970 C.3   219  ALA219      0.0334
     66  N         42.6150   14.9120   74.7380 N.am  220  GLY220     -0.1940
     67  CA        43.4840   15.9860   75.1890 C.3   220  GLY220      0.2014
     68  C         42.6720   17.2530   75.3890 C.2   220  GLY220      0.2638
     69  O         41.4460   17.2090   75.4450 O.2   220  GLY220     -0.2714
     70  N         43.3440   18.3920   75.4980 N.am  221  LEU221     -0.1977
     71  CA        42.6550   19.6750   75.5380 C.3   221  LEU221      0.1596
     72  C         41.9190   19.9260   74.2390 C.2   221  LEU221      0.2287
     73  O         42.4250   19.6020   73.1640 O.2   221  LEU221     -0.2864
     74  CB        43.6570   20.7960   75.7520 C.3   221  LEU221      0.0297
     75  CG        44.1660   20.8780   77.1700 C.3   221  LEU221      0.0022
     76  CD1       45.3430   21.8390   77.2210 C.3   221  LEU221      0.0001
     77  CD2       43.0480   21.3060   78.1240 C.3   221  LEU221      0.0001
     78  N         43.1840   25.3560   73.6470 N.3   226  ARG226     -0.1245
     79  CA        44.5000   25.5660   73.0160 C.3   226  ARG226      0.1563
     80  C         44.6440   26.9630   72.3810 C.2   226  ARG226      0.2260
     81  O         45.7310   27.5220   72.3120 O.2   226  ARG226     -0.2867
     82  CB        44.7310   24.5140   71.9300 C.3   226  ARG226      0.0307
     83  CG        44.9330   23.0890   72.4390 C.3   226  ARG226      0.0489
     84  CD        44.9140   22.1000   71.2880 C.3   226  ARG226      0.2205
     85  NE        44.8050   20.7090   71.7070 N.pl3 226  ARG226     -0.0865
     86  CZ        45.8360   19.9030   71.9850 C.cat 226  ARG226      0.5346
     87  NH1       47.0970   20.3240   71.9020 N.pl3 226  ARG226      0.1354
     88  NH2       45.5920   18.6560   72.3590 N.pl3 226  ARG226      0.1354
     89  N         52.9350   23.6730   77.8660 N.3   233  VAL233     -0.1231
     90  CA        54.0780   22.9850   78.4580 C.3   233  VAL233      0.1692
     91  C         53.9310   21.4580   78.4220 C.2   233  VAL233      0.2593
     92  O         52.8230   20.9030   78.3560 O.2   233  VAL233     -0.2718
     93  CB        54.3380   23.4310   79.9020 C.3   233  VAL233      0.0266
     94  CG1       54.4260   24.9450   79.9780 C.3   233  VAL233      0.0020
     95  CG2       53.2770   22.9420   80.8200 C.3   233  VAL233      0.0020
     96  N         55.0770   20.7900   78.5030 N.am  234  SER234     -0.1938
     97  CA        55.1430   19.3650   78.2900 C.3   234  SER234      0.2055
     98  C         56.1410   18.7020   79.2190 C.2   234  SER234      0.2642
     99  O         57.2520   19.2050   79.4120 O.2   234  SER234     -0.2714
    100  CB        55.5470   19.0980   76.8320 C.3   234  SER234      0.2130
    101  OG        56.9360   19.3080   76.6720 O.3   234  SER234     -0.2179
    102  N         55.7170   17.5710   79.7790 N.am  235  ILE235     -0.1977
    103  CA        56.6240   16.5770   80.3310 C.3   235  ILE235      0.1596
    104  C         57.3030   15.8490   79.1840 C.2   235  ILE235      0.2287
    105  O         56.6220   15.2040   78.4110 O.2   235  ILE235     -0.2864
    106  CB        55.8610   15.5300   81.1910 C.3   235  ILE235      0.0276
    107  CG1       54.9350   16.1850   82.2010 C.3   235  ILE235      0.0022
    108  CG2       56.8200   14.6310   81.9330 C.3   235  ILE235      0.0022
    109  CD1       55.5990   17.2880   82.9540 C.3   235  ILE235      0.0001
    110  N         58.9950   12.8100   77.1820 N.3   237  MET237     -0.1245
    111  CA        58.7290   11.3780   77.2450 C.3   237  MET237      0.1570
    112  C         59.8660   10.5670   76.6220 C.2   237  MET237      0.2261
    113  O         60.7070   11.1040   75.9070 O.2   237  MET237     -0.2867
    114  CB        57.3970   11.0010   76.5540 C.3   237  MET237      0.0387
    115  CG        56.2030   11.9480   76.7550 C.3   237  MET237      0.0595
    116  SD        54.9210   11.3450   77.8840 S.3   237  MET237     -0.1393
    117  CE        55.8530   11.4370   79.4030 C.3   237  MET237      0.0692
    118  N         52.2560    7.5690   76.5930 N.3   243  SER243     -0.1202
    119  CA        51.8390    8.9210   77.0410 C.3   243  SER243      0.2020
    120  C         51.3980    8.7890   78.5180 C.2   243  SER243      0.2619
    121  O         51.4680    7.6890   79.0520 O.2   243  SER243     -0.2717
    122  CB        50.6830    9.4470   76.1940 C.3   243  SER243      0.2103
    123  OG        50.1350   10.6510   76.7310 O.3   243  SER243     -0.2182
    124  N         50.9800    9.8730   79.1930 N.am  244  LEU244     -0.1965
    125  CA        50.6020    9.7850   80.6220 C.3   244  LEU244      0.1728
    126  C         49.0910    9.9440   80.8810 C.2   244  LEU244      0.2616
    127  O         48.4180   10.7000   80.1960 O.2   244  LEU244     -0.2715
    128  CB        51.3720   10.8120   81.4660 C.3   244  LEU244      0.0311
    129  CG        52.9110   10.7780   81.5560 C.3   244  LEU244      0.0022
    130  CD1       53.4370   11.9870   82.3520 C.3   244  LEU244      0.0001
    131  CD2       53.4180    9.5060   82.1930 C.3   244  LEU244      0.0001
    132  N         48.5740    9.1940   81.8630 N.am  245  ASN245     -0.1958
    133  CA        47.2340    9.4250   82.4450 C.3   245  ASN245      0.1819
    134  C         47.1400   10.8830   82.9130 C.2   245  ASN245      0.2621
    135  O         48.1410   11.4440   83.3230 O.2   245  ASN245     -0.2715
    136  CB        46.9830    8.4530   83.6110 C.3   245  ASN245      0.1195
    137  CG        45.8350    8.8700   84.5040 C.2   245  ASN245      0.2630
    138  OD1       44.6870    8.4610   84.3080 O.2   245  ASN245     -0.2716
    139  ND2       46.1400    9.6740   85.5160 N.am  245  ASN245     -0.0877
    140  N         45.9580   11.4920   82.8360 N.am  246  ALA246     -0.1977
    141  CA        45.8150   12.9290   83.1110 C.3   246  ALA246      0.1597
    142  C         46.1140   13.3220   84.5660 C.2   246  ALA246      0.2287
    143  O         46.6620   14.3930   84.8060 O.2   246  ALA246     -0.2864
    144  CB        44.3980   13.4380   82.7130 C.3   246  ALA246      0.0319
    145  N         49.8350   13.0910   85.1480 N.3   249  ALA249     -0.1245
    146  CA        50.5290   14.1760   84.4840 C.3   249  ALA249      0.1562
    147  C         50.3600   15.4240   85.3030 C.2   249  ALA249      0.2260
    148  O         51.3020   16.1880   85.4810 O.2   249  ALA249     -0.2867
    149  CB        49.9920   14.3950   83.0750 C.3   249  ALA249      0.0290
    150  N         53.2230   17.9510   87.2460 N.3   253  ILE253     -0.1245
    151  CA        53.3990   19.3520   86.8850 C.3   253  ILE253      0.1561
    152  C         53.0960   20.2620   88.0680 C.2   253  ILE253      0.2260
    153  O         53.7760   21.2410   88.2810 O.2   253  ILE253     -0.2867
    154  CB        52.5400   19.7150   85.6520 C.3   253  ILE253      0.0252
    155  CG1       52.9970   18.9240   84.4070 C.3   253  ILE253      0.0019
    156  CG2       52.6350   21.1880   85.3520 C.3   253  ILE253      0.0019
    157  CD1       51.9910   18.9020   83.2470 C.3   253  ILE253      0.0001
@<TRIPOS>BOND
     1    84    85    1
     2    84    83    1
     3    85    86    2
     4    87    86    1
     5    82    83    1
     6    82    79    1
     7    86    88    1
     8    81    80    2
     9    80    79    1
    10    24    22   ar
    11    64    63    2
    12    57    56    2
    13    15    13   ar
    14    65    62    1
    15    79    78    1
    16    62    63    1
    17    62    61    1
    18    73    72    2
    19    22    21    1
    20    22    23   ar
    21    59    58    1
    22    63    66   am
    23    21    20    1
    24    56    61   am
    25    56    55    1
    26    13    14   ar
    27    13    12    1
    28    72    71    1
    29    18    19    2
    30    18    17    1
    31    58    55    1
    32    58    60    1
    33    66    67    1
    34    55    54    1
    35    20    17    1
    36    12     9    1
    37    67    68    1
    38    17    16    1
    39    68    69    2
    40    68    70   am
    41    70    71    1
    42    71    74    1
    43    16    10   am
    44    74    75    1
    45   113   112    2
    46    10    11    2
    47    10     9    1
    48   122   123    1
    49   122   119    1
    50     9     8    1
    51    54    47   am
    52    43    42    2
    53   114   115    1
    54   114   111    1
    55    48    47    2
    56   118   119    1
    57   112   111    1
    58   101   100    1
    59   115   116    1
    60   100    97    1
    61    47    46    1
    62   119   120    1
    63    75    76    1
    64    75    77    1
    65   110   111    1
    66    42    44   am
    67    42    41    1
    68    40    39    2
    69     8     3   am
    70     4     3    2
    71    89    90    1
    72   116   117    1
    73     3     2    1
    74    39    45   am
    75    39    38    1
    76    97    96    1
    77    97    98    1
    78    92    91    2
    79   105   104    2
    80    91    90    1
    81    91    96   am
    82    41    38    1
    83    90    93    1
    84    46    45    1
    85    46    49    1
    86    37    38    1
    87    37    35   am
    88   120   121    2
    89   120   124   am
    90     1     2    1
    91    34    35    1
    92    34    33    1
    93     2     5    1
    94   104   103    1
    95   124   125    1
    96    98    99    2
    97    98   102   am
    98    49    50    1
    99    35    36    2
   100   102   103    1
   101    93    94    1
   102    93    95    1
   103    33    27   am
   104   127   126    2
   105    52    51   ar
   106   103   106    1
   107     5     6    1
   108     5     7    1
   109   125   126    1
   110   125   128    1
   111    50    51    1
   112   126   132   am
   113    27    28    2
   114    27    26    1
   115    51    53   ar
   116   106   108    1
   117   106   107    1
   118   128   129    1
   119   129   131    1
   120   129   130    1
   121   132   133    1
   122    26    25    1
   123    26    29    1
   124   107   109    1
   125   133   134    1
   126   133   136    1
   127   144   141    1
   128   140   134   am
   129   140   141    1
   130   134   135    2
   131    31    29    1
   132   149   146    1
   133   141   142    1
   134   157   155    1
   135    29    30    1
   136   136   137    1
   137    30    32    1
   138   138   137    2
   139   155   154    1
   140   146   145    1
   141   146   147    1
   142   137   139   am
   143   142   143    2
   144   147   148    2
   145   156   154    1
   146   154   151    1
   147   151   150    1
   148   151   152    1
   149   152   153    2
