@<TRIPOS>MOLECULE
tmp/1x7rA01.pdb
 178 168 0 0 0
SMALL
GASTEIGER

@<TRIPOS>ATOM
      1  N         11.3190   33.2050   30.0840 N.3    31  MET31      -0.1245
      2  CA        12.4020   32.2660   29.8240 C.3    31  MET31       0.1570
      3  C         11.8520   30.8520   29.6190 C.2    31  MET31       0.2261
      4  O         12.3770   30.0940   28.8160 O.2    31  MET31      -0.2867
      5  CB        13.3960   32.2700   30.9870 C.3    31  MET31       0.0387
      6  CG        14.2770   33.5090   31.0600 C.3    31  MET31       0.0595
      7  SD        15.1670   33.7730   29.5220 S.3    31  MET31      -0.1393
      8  CE        15.9710   32.1420   29.3240 C.3    31  MET31       0.0692
      9  N         10.3260   30.5180   25.9350 N.3    34  LEU34      -0.1231
     10  CA        11.3480   30.3850   24.9000 C.3    34  LEU34       0.1693
     11  C         12.1480   29.0810   24.9910 C.2    34  LEU34       0.2592
     12  O         12.3680   28.4180   23.9810 O.2    34  LEU34      -0.2718
     13  CB        12.3170   31.5700   24.9510 C.3    34  LEU34       0.0284
     14  CG        11.7760   33.0010   24.8530 C.3    34  LEU34       0.0019
     15  CD1       12.9530   33.9230   24.5360 C.3    34  LEU34       0.0001
     16  CD2       10.7180   33.1260   23.7620 C.3    34  LEU34       0.0001
     17  N         12.5950   28.7220   26.1910 N.am   35  THR35      -0.1953
     18  CA        13.3710   27.4960   26.3480 C.3    35  THR35       0.1897
     19  C         12.5390   26.2420   26.0650 C.2    35  THR35       0.2313
     20  O         13.0560   25.2670   25.5290 O.2    35  THR35      -0.2863
     21  CB        14.0010   27.4030   27.7560 C.3    35  THR35       0.1794
     22  OG1       12.9740   27.4420   28.7580 O.3    35  THR35      -0.2208
     23  CG2       14.9760   28.5560   27.9730 C.3    35  THR35       0.0378
     24  N         10.0410   26.0480   23.9400 N.3    37  LEU37      -0.1231
     25  CA         9.8950   26.0050   22.4810 C.3    37  LEU37       0.1693
     26  C         11.1870   25.5070   21.8220 C.2    37  LEU37       0.2591
     27  O         11.1530   24.6790   20.9120 O.2    37  LEU37      -0.2718
     28  CB         9.5380   27.4010   21.9490 C.3    37  LEU37       0.0284
     29  CG         9.3560   27.5640   20.4310 C.3    37  LEU37       0.0019
     30  CD1        8.2790   26.6000   19.9210 C.3    37  LEU37       0.0001
     31  CD2        8.9640   28.9910   20.1210 C.3    37  LEU37       0.0001
     32  N         12.3280   26.0000   22.2940 N.am   38  ALA38      -0.1980
     33  CA        13.6140   25.5890   21.7460 C.3    38  ALA38       0.1597
     34  C         13.8480   24.0970   21.9610 C.2    38  ALA38       0.2287
     35  O         14.3170   23.4050   21.0610 O.2    38  ALA38      -0.2864
     36  CB        14.7380   26.3900   22.3910 C.3    38  ALA38       0.0319
     37  N         11.7720   22.2280   19.4960 N.3    41  GLU41      -0.1245
     38  CA        12.2930   22.4150   18.1460 C.3    41  GLU41       0.1567
     39  C         13.5670   21.6000   17.9210 C.2    41  GLU41       0.2260
     40  O         13.8240   21.1300   16.8150 O.2    41  GLU41      -0.2867
     41  CB        12.6150   23.8860   17.8890 C.3    41  GLU41       0.0388
     42  CG        11.4250   24.7390   17.5850 C.3    41  GLU41       0.1160
     43  CD        11.8390   26.1140   17.1360 C.2    41  GLU41       0.3649
     44  OE1       11.8880   27.0320   17.9730 O.co2  41  GLU41      -0.2457
     45  OE2       12.1400   26.2680   15.9380 O.co2  41  GLU41      -0.2457
     46  N         23.3390   24.6150   16.8980 N.3    71  TRP71      -0.1227
     47  CA        21.9240   24.6050   17.2420 C.3    71  TRP71       0.1737
     48  C         21.2380   25.9410   17.4890 C.2    71  TRP71       0.2595
     49  O         20.1620   26.1850   16.9460 O.2    71  TRP71      -0.2718
     50  CB        21.6590   23.6680   18.4320 C.3    71  TRP71       0.0564
     51  CG        22.1450   24.1690   19.7480 C.ar   71  TRP71       0.0003
     52  CD1       23.3910   24.0060   20.2790 C.ar   71  TRP71       0.0946
     53  CD2       21.3870   24.9010   20.7180 C.ar   71  TRP71       0.0152
     54  NE1       23.4530   24.5860   21.5200 N.ar   71  TRP71      -0.2442
     55  CE2       22.2370   25.1450   21.8140 C.ar   71  TRP71       0.0810
     56  CE3       20.0670   25.3740   20.7670 C.ar   71  TRP71       0.0012
     57  CZ2       21.8150   25.8420   22.9510 C.ar   71  TRP71       0.0191
     58  CZ3       19.6460   26.0640   21.8990 C.ar   71  TRP71       0.0001
     59  CH2       20.5190   26.2920   22.9740 C.ar   71  TRP71       0.0015
     60  N         21.8230   26.8060   18.3080 N.am   72  LEU72      -0.1980
     61  CA        21.1690   28.0860   18.5710 C.3    72  LEU72       0.1596
     62  C         21.1620   28.9960   17.3450 C.2    72  LEU72       0.2287
     63  O         20.1860   29.7230   17.1070 O.2    72  LEU72      -0.2864
     64  CB        21.8320   28.7930   19.7450 C.3    72  LEU72       0.0297
     65  CG        21.1100   30.0560   20.2290 C.3    72  LEU72       0.0022
     66  CD1       19.6490   29.7510   20.4830 C.3    72  LEU72       0.0001
     67  CD2       21.7950   30.5750   21.5100 C.3    72  LEU72       0.0001
     68  N         18.2410   27.8160   15.2490 N.3    75  LEU75      -0.1231
     69  CA        16.9440   28.2280   15.7750 C.3    75  LEU75       0.1693
     70  C         16.7640   29.7220   15.4430 C.2    75  LEU75       0.2591
     71  O         15.7020   30.1530   14.9820 O.2    75  LEU75      -0.2718
     72  CB        16.8890   28.0360   17.2960 C.3    75  LEU75       0.0284
     73  CG        16.8770   26.6190   17.8860 C.3    75  LEU75       0.0019
     74  CD1       16.7910   26.7100   19.3990 C.3    75  LEU75       0.0001
     75  CD2       15.6860   25.8460   17.3500 C.3    75  LEU75       0.0001
     76  N         17.8120   30.5080   15.6640 N.am   76  MET76      -0.1979
     77  CA        17.7340   31.9490   15.3980 C.3    76  MET76       0.1605
     78  C         17.5360   32.3330   13.9320 C.2    76  MET76       0.2287
     79  O         16.7660   33.2450   13.6320 O.2    76  MET76      -0.2864
     80  CB        18.9670   32.6630   15.9410 C.3    76  MET76       0.0413
     81  CG        19.0410   32.6770   17.4410 C.3    76  MET76       0.0598
     82  SD        20.4520   33.6220   17.9910 S.3    76  MET76      -0.1393
     83  CE        19.9120   34.0550   19.6520 C.3    76  MET76       0.0692
     84  N         14.0320   31.7910   13.1070 N.3    79  LEU79      -0.1245
     85  CA        13.2140   32.8120   13.7500 C.3    79  LEU79       0.1561
     86  C         13.2020   34.1230   12.9610 C.2    79  LEU79       0.2260
     87  O         12.1620   34.7740   12.8390 O.2    79  LEU79      -0.2867
     88  CB        13.7300   33.0810   15.1670 C.3    79  LEU79       0.0270
     89  CG        13.1000   34.2520   15.9210 C.3    79  LEU79       0.0019
     90  CD1       11.6240   34.0030   16.1100 C.3    79  LEU79       0.0001
     91  CD2       13.8030   34.4400   17.2610 C.3    79  LEU79       0.0001
     92  N         11.0120   33.5380    9.8180 N.3    82  ARG82      -0.1245
     93  CA         9.5730   33.5780   10.1050 C.3    82  ARG82       0.1563
     94  C          9.0990   34.9940   10.3960 C.2    82  ARG82       0.2260
     95  O          7.9700   35.3640   10.0820 O.2    82  ARG82      -0.2867
     96  CB         9.2260   32.7150   11.3270 C.3    82  ARG82       0.0307
     97  CG         9.4870   31.2480   11.1840 C.3    82  ARG82       0.0489
     98  CD         8.8160   30.4850   12.3230 C.3    82  ARG82       0.2205
     99  NE         9.4330   30.6690   13.6470 N.pl3  82  ARG82      -0.0865
    100  CZ        10.5600   30.0760   14.0490 C.cat  82  ARG82       0.5346
    101  NH1       11.2250   29.2640   13.2400 N.pl3  82  ARG82       0.1354
    102  NH2       10.9970   30.2500   15.2850 N.pl3  82  ARG82       0.1354
    103  N          8.0210   33.7350   17.0380 N.3    92  PHE92      -0.1241
    104  CA         8.5900   32.5170   17.6030 C.3    92  PHE92       0.1605
    105  C          7.7620   31.2970   17.1900 C.2    92  PHE92       0.2264
    106  O          8.3130   30.2350   16.8690 O.2    92  PHE92      -0.2867
    107  CB         8.6440   32.6390   19.1260 C.3    92  PHE92       0.0534
    108  CG         9.7790   33.4910   19.6220 C.ar   92  PHE92      -0.0203
    109  CD1       11.0260   32.9230   19.8890 C.ar   92  PHE92      -0.0042
    110  CD2        9.6130   34.8650   19.7970 C.ar   92  PHE92      -0.0042
    111  CE1       12.0940   33.7060   20.3220 C.ar   92  PHE92      -0.0003
    112  CE2       10.6810   35.6670   20.2310 C.ar   92  PHE92      -0.0003
    113  CZ        11.9230   35.0830   20.4940 C.ar   92  PHE92      -0.0000
    114  N         17.4680   40.7970   27.6450 N.3   109  MET109     -0.1245
    115  CA        16.8440   40.2200   26.4590 C.3   109  MET109      0.1570
    116  C         16.5090   41.2000   25.3290 C.2   109  MET109      0.2261
    117  O         16.5760   40.8270   24.1620 O.2   109  MET109     -0.2867
    118  CB        15.5840   39.4380   26.8520 C.3   109  MET109      0.0387
    119  CG        15.1080   38.4750   25.7660 C.3   109  MET109      0.0595
    120  SD        13.7780   37.3750   26.3150 S.3   109  MET109     -0.1393
    121  CE        14.7430   36.0420   27.0650 C.3   109  MET109      0.0692
    122  N         19.2410   41.3600   22.6340 N.3   112  ILE112     -0.1231
    123  CA        19.2520   40.3290   21.6190 C.3   112  ILE112      0.1692
    124  C         18.0070   40.3810   20.7340 C.2   112  ILE112      0.2592
    125  O         18.0820   40.0030   19.5670 O.2   112  ILE112     -0.2718
    126  CB        19.4780   38.9210   22.2270 C.3   112  ILE112      0.0266
    127  CG1       18.4030   37.9660   21.7320 C.3   112  ILE112      0.0019
    128  CG2       19.5660   38.9900   23.7560 C.3   112  ILE112      0.0020
    129  CD1       18.9590   36.6760   21.2880 C.3   112  ILE112      0.0001
    130  N         16.8720   40.8440   21.2660 N.am  113  PHE113     -0.1976
    131  CA        15.6650   40.9640   20.4380 C.3   113  PHE113      0.1639
    132  C         15.9240   42.0270   19.3630 C.2   113  PHE113      0.2290
    133  O         15.5140   41.8750   18.2180 O.2   113  PHE113     -0.2864
    134  CB        14.4300   41.3830   21.2600 C.3   113  PHE113      0.0560
    135  CG        13.5950   40.2230   21.7690 C.ar  113  PHE113     -0.0200
    136  CD1       14.1960   39.0140   22.0940 C.ar  113  PHE113     -0.0042
    137  CD2       12.2180   40.3600   21.9640 C.ar  113  PHE113     -0.0042
    138  CE1       13.4460   37.9590   22.6060 C.ar  113  PHE113     -0.0003
    139  CE2       11.4560   39.3090   22.4790 C.ar  113  PHE113     -0.0003
    140  CZ        12.0730   38.1060   22.8020 C.ar  113  PHE113     -0.0000
    141  N         18.0100   40.5740   16.6400 N.3   116  LEU116     -0.1245
    142  CA        17.1830   39.6530   15.8590 C.3   116  LEU116      0.1561
    143  C         16.2660   40.4290   14.9170 C.2   116  LEU116      0.2260
    144  O         16.1110   40.0690   13.7550 O.2   116  LEU116     -0.2867
    145  CB        16.3370   38.7640   16.7860 C.3   116  LEU116      0.0270
    146  CG        17.0730   37.6420   17.5360 C.3   116  LEU116      0.0019
    147  CD1       16.1760   37.0800   18.6350 C.3   116  LEU116      0.0001
    148  CD2       17.4830   36.5390   16.5570 C.3   116  LEU116      0.0001
    149  N         23.3610   35.2150   22.7450 N.3   209  GLY209     -0.1225
    150  CA        22.2050   34.5120   23.2620 C.3   209  GLY209      0.1811
    151  C         22.6080   33.3820   24.1950 C.2   209  GLY209      0.2280
    152  O         21.9600   33.1550   25.2110 O.2   209  GLY209     -0.2866
    153  N         23.6670   34.6210   27.4870 N.3   212  HIS212     -0.1226
    154  CA        22.4540   35.0520   28.1790 C.3   212  HIS212      0.1752
    155  C         21.7180   33.8710   28.8220 C.2   212  HIS212      0.2595
    156  O         21.2890   33.9540   29.9730 O.2   212  HIS212     -0.2718
    157  CB        21.5260   35.7840   27.2020 C.3   212  HIS212      0.0759
    158  CG        20.3070   36.3600   27.8500 C.ar  212  HIS212      0.0818
    159  ND1       19.1090   35.6830   27.9220 N.ar  212  HIS212     -0.2268
    160  CD2       20.1210   37.5170   28.5300 C.ar  212  HIS212      0.1154
    161  CE1       18.2420   36.3910   28.6190 C.ar  212  HIS212      0.1986
    162  NE2       18.8320   37.5090   29.0030 N.ar  212  HIS212     -0.2212
    163  N         21.5860   32.7860   28.0590 N.am  213  LEU213     -0.1980
    164  CA        20.9260   31.5710   28.5120 C.3   213  LEU213      0.1596
    165  C         21.6890   30.9140   29.6690 C.2   213  LEU213      0.2287
    166  O         21.0830   30.4120   30.6100 O.2   213  LEU213     -0.2864
    167  CB        20.7850   30.5980   27.3370 C.3   213  LEU213      0.0297
    168  CG        20.1390   29.2350   27.5860 C.3   213  LEU213      0.0022
    169  CD1       18.7490   29.4050   28.1730 C.3   213  LEU213      0.0001
    170  CD2       20.0680   28.4760   26.2820 C.3   213  LEU213      0.0001
    171  N         17.5460   20.5650   25.7860 N.3   228  LEU228     -0.1245
    172  CA        18.0630   21.9260   25.7380 C.3   228  LEU228      0.1561
    173  C         19.2720   22.0330   26.6630 C.2   228  LEU228      0.2260
    174  O         20.2820   22.6420   26.3180 O.2   228  LEU228     -0.2867
    175  CB        16.9990   22.9270   26.1830 C.3   228  LEU228      0.0270
    176  CG        17.5070   24.3740   26.1900 C.3   228  LEU228      0.0019
    177  CD1       17.6150   24.8600   24.7690 C.3   228  LEU228      0.0001
    178  CD2       16.5720   25.2600   26.9870 C.3   228  LEU228      0.0001
@<TRIPOS>BOND
     1    92    93    1
     2    95    94    2
     3    93    94    1
     4    93    96    1
     5    97    96    1
     6    97    98    1
     7    98    99    1
     8    87    86    2
     9    86    85    1
    10    84    85    1
    11   101   100    1
    12    79    78    2
    13    99   100    2
    14    85    88    1
    15   144   143    2
    16    78    77    1
    17   100   102    1
    18   143   142    1
    19    71    70    2
    20    88    89    1
    21    68    69    1
    22    77    76    1
    23    77    80    1
    24    70    76   am
    25    70    69    1
    26    69    72    1
    27   142   141    1
    28   142   145    1
    29    89    90    1
    30    89    91    1
    31    45    43   ar
    32    80    81    1
    33   148   146    1
    34   145   146    1
    35    40    39    2
    36   106   105    2
    37    46    47    1
    38    49    48    2
    39   103   104    1
    40    63    62    2
    41    43    42    1
    42    43    44   ar
    43   105   104    1
    44    47    48    1
    45    47    50    1
    46    72    73    1
    47    62    61    1
    48    75    73    1
    49    81    82    1
    50    48    60   am
    51   146   147    1
    52    42    41    1
    53   104   107    1
    54    73    74    1
    55    41    38    1
    56    39    38    1
    57    82    83    1
    58    38    37    1
    59   133   132    2
    60    60    61    1
    61    50    51    1
    62    61    64    1
    63   107   108    1
    64   132   131    1
    65   125   124    2
    66   108   110   ar
    67   108   109   ar
    68    64    65    1
    69    51    52   ar
    70    51    53   ar
    71   110   112   ar
    72   109   111   ar
    73    30    29    1
    74    31    29    1
    75    65    66    1
    76    65    67    1
    77   112   113   ar
    78    52    54   ar
    79   111   113   ar
    80    29    28    1
    81   131   134    1
    82   131   130    1
    83    53    56   ar
    84    53    55   ar
    85   124   130   am
    86   124   123    1
    87    56    58   ar
    88    27    26    2
    89    35    34    2
    90   134   135    1
    91   129   127    1
    92    54    55   ar
    93   123   126    1
    94   123   122    1
    95   127   126    1
    96    33    34    1
    97    33    32    1
    98    33    36    1
    99   135   137   ar
   100   135   136   ar
   101    55    57   ar
   102    26    32   am
   103    26    25    1
   104    58    59   ar
   105    28    25    1
   106   137   139   ar
   107   136   138   ar
   108   126   128    1
   109   139   140   ar
   110    25    24    1
   111   138   140   ar
   112   149   150    1
   113    57    59   ar
   114   150   151    1
   115    16    14    1
   116    12    11    2
   117   117   116    2
   118   151   152    2
   119    15    14    1
   120   177   176    1
   121    14    13    1
   122    10    13    1
   123    10    11    1
   124    10     9    1
   125    11    17   am
   126   116   115    1
   127    20    19    2
   128   172   171    1
   129   172   175    1
   130   172   173    1
   131   119   120    1
   132   119   118    1
   133    19    18    1
   134   175   176    1
   135   176   178    1
   136    17    18    1
   137   170   168    1
   138   120   121    1
   139   174   173    2
   140    18    21    1
   141   115   118    1
   142   115   114    1
   143   157   158    1
   144   157   154    1
   145   167   168    1
   146   167   164    1
   147   153   154    1
   148   168   169    1
   149    21    23    1
   150    21    22    1
   151   158   159   ar
   152   158   160   ar
   153   159   161   ar
   154   163   164    1
   155   163   155   am
   156   154   155    1
   157   164   165    1
   158   160   162   ar
   159   161   162   ar
   160     4     3    2
   161   155   156    2
   162     8     7    1
   163     7     6    1
   164     3     2    1
   165   165   166    2
   166     2     1    1
   167     2     5    1
   168     5     6    1
