@<TRIPOS>MOLECULE
tmp/1x7rA00.pdb
 117 109 0 0 0
SMALL
GASTEIGER

@<TRIPOS>ATOM
      1  N         14.2850   18.6510   18.8470 N.3    43  VAL43      -0.1245
      2  CA        13.9630   17.2800   18.4550 C.3    43  VAL43       0.1561
      3  C         13.7920   17.2460   16.9380 C.2    43  VAL43       0.2260
      4  O         14.3290   16.3760   16.2610 O.2    43  VAL43      -0.2867
      5  CB        12.6460   16.7910   19.1120 C.3    43  VAL43       0.0252
      6  CG1       12.2820   15.3900   18.5920 C.3    43  VAL43       0.0019
      7  CG2       12.7950   16.7810   20.6290 C.3    43  VAL43       0.0019
      8  N         17.1160   17.8020   14.8610 N.3    46  ILE46      -0.1231
      9  CA        17.9230   16.5950   14.7080 C.3    46  ILE46       0.1692
     10  C         17.4360   15.7580   13.5220 C.2    46  ILE46       0.2592
     11  O         18.2420   15.2310   12.7520 O.2    46  ILE46      -0.2718
     12  CB        17.8780   15.7340   15.9910 C.3    46  ILE46       0.0266
     13  CG1       18.5230   16.5020   17.1440 C.3    46  ILE46       0.0019
     14  CG2       18.5990   14.4120   15.7650 C.3    46  ILE46       0.0020
     15  CD1       18.3570   15.8150   18.4850 C.3    46  ILE46       0.0001
     16  N         16.1190   15.6370   13.3790 N.am   47  ASN47      -0.1974
     17  CA        15.5430   14.8810   12.2680 C.3    47  ASN47       0.1688
     18  C         15.8970   15.5760   10.9600 C.2    47  ASN47       0.2292
     19  O         16.2220   14.9220    9.9680 O.2    47  ASN47      -0.2864
     20  CB        14.0180   14.8060   12.3960 C.3    47  ASN47       0.1181
     21  CG        13.5600   13.9030   13.5310 C.2    47  ASN47       0.2629
     22  OD1       12.4040   13.9680   13.9600 O.2    47  ASN47      -0.2716
     23  ND2       14.4490   13.0490   14.0080 N.am   47  ASN47      -0.0877
     24  N         19.6140   15.1500    9.6730 N.3    50  LYS50      -0.1245
     25  CA        19.8480   13.8730    9.0040 C.3    50  LYS50       0.1561
     26  C         19.5930   13.9380    7.5080 C.2    50  LYS50       0.2260
     27  O         20.2110   13.2010    6.7360 O.2    50  LYS50      -0.2867
     28  CB        18.9690   12.7940    9.6220 C.3    50  LYS50       0.0271
     29  CG        19.3430   12.4490   11.0430 C.3    50  LYS50       0.0035
     30  CD        18.2810   11.5610   11.6640 C.3    50  LYS50       0.0206
     31  CE        18.6500   11.1590   13.0800 C.3    50  LYS50       0.1093
     32  NZ        17.5120   10.4650   13.7490 N.3    50  LYS50      -0.1314
     33  N         25.3720   15.3210    5.6890 N.3    55  PHE55      -0.1241
     34  CA        25.4220   15.2090    7.1440 C.3    55  PHE55       0.1605
     35  C         25.5980   13.7720    7.6310 C.2    55  PHE55       0.2264
     36  O         26.4400   13.5010    8.4850 O.2    55  PHE55      -0.2867
     37  CB        24.1560   15.8080    7.7630 C.3    55  PHE55       0.0534
     38  CG        24.2120   15.9330    9.2630 C.ar   55  PHE55      -0.0203
     39  CD1       24.9340   16.9610    9.8610 C.ar   55  PHE55      -0.0042
     40  CD2       23.5500   15.0180   10.0790 C.ar   55  PHE55      -0.0042
     41  CE1       25.0010   17.0770   11.2440 C.ar   55  PHE55      -0.0003
     42  CE2       23.6110   15.1250   11.4730 C.ar   55  PHE55      -0.0003
     43  CZ        24.3390   16.1610   12.0540 C.ar   55  PHE55      -0.0000
     44  N         29.0870    9.5480   13.6120 N.3    60  LEU60      -0.1245
     45  CA        28.1050    9.9920   14.5810 C.3    60  LEU60       0.1561
     46  C         28.6930   11.0720   15.4840 C.2    60  LEU60       0.2260
     47  O         28.0170   12.0360   15.8390 O.2    60  LEU60      -0.2867
     48  CB        27.6280    8.8160   15.4260 C.3    60  LEU60       0.0270
     49  CG        26.5770    9.1500   16.4770 C.3    60  LEU60       0.0019
     50  CD1       25.3330    9.7410   15.8310 C.3    60  LEU60       0.0001
     51  CD2       26.2390    7.8900   17.2180 C.3    60  LEU60       0.0001
     52  N         28.5700   14.3330   13.7060 N.3    63  GLN63      -0.1231
     53  CA        27.2010   14.8130   13.5440 C.3    63  GLN63       0.1698
     54  C         26.8440   15.5270   14.8490 C.2    63  GLN63       0.2592
     55  O         26.3500   16.6610   14.8550 O.2    63  GLN63      -0.2718
     56  CB        26.2490   13.6330   13.3130 C.3    63  GLN63       0.0381
     57  CG        26.3840   12.9790   11.9430 C.3    63  GLN63       0.0905
     58  CD        25.5490   11.7160   11.8120 C.2    63  GLN63       0.2608
     59  OE1       24.3800   11.6890   12.1990 O.2    63  GLN63      -0.2717
     60  NE2       26.1460   10.6630   11.2530 N.am   63  GLN63      -0.0878
     61  N         27.1130   14.8520   15.9590 N.am   64  VAL64      -0.1980
     62  CA        26.8620   15.4220   17.2780 C.3    64  VAL64       0.1595
     63  C         27.5680   16.7710   17.4160 C.2    64  VAL64       0.2287
     64  O         26.9740   17.7490   17.8650 O.2    64  VAL64      -0.2864
     65  CB        27.3740   14.4870   18.3980 C.3    64  VAL64       0.0276
     66  CG1       27.5170   15.2650   19.7070 C.3    64  VAL64       0.0022
     67  CG2       26.4120   13.3300   18.5860 C.3    64  VAL64       0.0022
     68  N         25.9080   19.7030   15.3940 N.3    67  LEU67      -0.1231
     69  CA        24.6840   20.1340   16.0490 C.3    67  LEU67       0.1693
     70  C         24.9500   20.8530   17.3730 C.2    67  LEU67       0.2591
     71  O         24.2500   21.8020   17.7090 O.2    67  LEU67      -0.2718
     72  CB        23.7510   18.9380   16.2590 C.3    67  LEU67       0.0284
     73  CG        23.0740   18.4780   14.9620 C.3    67  LEU67       0.0019
     74  CD1       22.4450   17.1060   15.1380 C.3    67  LEU67       0.0001
     75  CD2       22.0330   19.5190   14.5580 C.3    67  LEU67       0.0001
     76  N         25.9490   20.4040   18.1290 N.am   68  GLU68      -0.1979
     77  CA        26.2710   21.0550   19.3960 C.3    68  GLU68       0.1602
     78  C         26.7650   22.4800   19.1470 C.2    68  GLU68       0.2287
     79  O         26.4960   23.3840   19.9330 O.2    68  GLU68      -0.2864
     80  CB        27.3660   20.2930   20.1490 C.3    68  GLU68       0.0415
     81  CG        26.9920   18.8800   20.5690 C.3    68  GLU68       0.1163
     82  CD        28.0030   18.2790   21.5310 C.2    68  GLU68       0.3649
     83  OE1       29.2080   18.5900   21.4030 O.co2  68  GLU68      -0.2457
     84  OE2       27.5950   17.4870   22.4070 O.co2  68  GLU68      -0.2457
     85  N         15.6370   18.5710   29.4680 N.3   226  ASP226     -0.1225
     86  CA        16.8060   17.7360   29.1940 C.3   226  ASP226      0.1805
     87  C         17.6010   17.9300   27.8980 C.2   226  ASP226      0.2597
     88  O         18.8220   18.0440   27.9490 O.2   226  ASP226     -0.2718
     89  CB        16.4300   16.2590   29.3540 C.3   226  ASP226      0.1424
     90  CG        16.0200   15.9130   30.7810 C.2   226  ASP226      0.3668
     91  OD1       16.5990   16.4880   31.7300 O.co2 226  ASP226     -0.2456
     92  OD2       15.1300   15.0580   30.9610 O.co2 226  ASP226     -0.2456
     93  N         16.9440   17.9800   26.7460 N.am  227  LEU227     -0.1979
     94  CA        17.6970   18.1510   25.5040 C.3   227  LEU227      0.1596
     95  C         18.3090   19.5440   25.4110 C.2   227  LEU227      0.2287
     96  O         19.4580   19.6960   25.0110 O.2   227  LEU227     -0.2864
     97  CB        16.8100   17.8740   24.2890 C.3   227  LEU227      0.0297
     98  CG        17.4720   17.9300   22.9060 C.3   227  LEU227      0.0022
     99  CD1       18.6850   17.0240   22.8320 C.3   227  LEU227      0.0001
    100  CD2       16.4570   17.5070   21.8780 C.3   227  LEU227      0.0001
    101  N         21.2980   19.7240   27.4690 N.3   230  GLU230     -0.1231
    102  CA        22.3990   18.9800   26.8580 C.3   230  GLU230      0.1699
    103  C         23.1540   19.8700   25.8780 C.2   230  GLU230      0.2592
    104  O         24.3840   19.9260   25.8970 O.2   230  GLU230     -0.2718
    105  CB        21.8810   17.7610   26.0820 C.3   230  GLU230      0.0402
    106  CG        21.5700   16.5300   26.9130 C.3   230  GLU230      0.1161
    107  CD        21.4590   15.2710   26.0610 C.2   230  GLU230      0.3649
    108  OE1       21.6650   15.3540   24.8290 O.co2 230  GLU230     -0.2457
    109  OE2       21.1740   14.1920   26.6240 O.co2 230  GLU230     -0.2457
    110  N         22.4040   20.5540   25.0160 N.am  231  MET231     -0.1979
    111  CA        22.9750   21.4350   23.9960 C.3   231  MET231      0.1605
    112  C         23.6740   22.6490   24.5970 C.2   231  MET231      0.2287
    113  O         24.7290   23.0870   24.1200 O.2   231  MET231     -0.2864
    114  CB        21.8760   21.9080   23.0450 C.3   231  MET231      0.0413
    115  CG        21.0240   20.7920   22.4800 C.3   231  MET231      0.0598
    116  SD        22.0290   19.4860   21.7570 S.3   231  MET231     -0.1393
    117  CE        22.3570   20.1840   20.1150 C.3   231  MET231      0.0692
@<TRIPOS>BOND
     1    33    34    1
     2    27    26    2
     3    34    35    1
     4    34    37    1
     5    26    25    1
     6    35    36    2
     7    37    38    1
     8    25    28    1
     9    25    24    1
    10    38    39   ar
    11    38    40   ar
    12    28    29    1
    13    39    41   ar
    14    19    18    2
    15    40    42   ar
    16    18    17    1
    17    29    30    1
    18    41    43   ar
    19    60    58   am
    20    42    43   ar
    21    30    31    1
    22    58    57    1
    23    58    59    2
    24    57    56    1
    25    17    20    1
    26    17    16    1
    27    20    21    1
    28    11    10    2
    29    31    32    1
    30    56    53    1
    31    16    10   am
    32    10     9    1
    33    21    22    2
    34    21    23   am
    35    53    52    1
    36    53    54    1
    37    44    45    1
    38    75    73    1
    39    45    48    1
    40    45    46    1
    41     9     8    1
    42     9    12    1
    43    54    55    2
    44    54    61   am
    45    73    74    1
    46    73    72    1
    47    68    69    1
    48    48    49    1
    49    46    47    2
    50    14    12    1
    51    50    49    1
    52    61    62    1
    53    12    13    1
    54    69    72    1
    55    69    70    1
    56     4     3    2
    57    49    51    1
    58     3     2    1
    59    13    15    1
    60    62    63    1
    61    62    65    1
    62    70    71    2
    63    70    76   am
    64    63    64    2
    65    76    77    1
    66    65    67    1
    67    65    66    1
    68     2     1    1
    69     2     5    1
    70     6     5    1
    71     5     7    1
    72    78    77    1
    73    78    79    2
    74    77    80    1
    75   117   116    1
    76    80    81    1
    77    81    82    1
    78    83    82   ar
    79    82    84   ar
    80   116   115    1
    81   100    98    1
    82   115   114    1
    83    99    98    1
    84    98    97    1
    85   114   111    1
    86   111   112    1
    87   111   110    1
    88   113   112    2
    89    97    94    1
    90   108   107   ar
    91    96    95    2
    92   110   103   am
    93    95    94    1
    94    94    93    1
    95   103   104    2
    96   103   102    1
    97   107   109   ar
    98   107   106    1
    99   105   102    1
   100   105   106    1
   101    93    87   am
   102   102   101    1
   103    87    88    2
   104    87    86    1
   105    86    89    1
   106    86    85    1
   107    89    90    1
   108    90    92   ar
   109    90    91   ar
