@<TRIPOS>MOLECULE
tmp/1x81B00.pdb
 182 182 0 0 0
SMALL
GASTEIGER

@<TRIPOS>ATOM
      1  N         43.7730   60.3540   -2.2440 N.3    72  TYR72      -0.1241
      2  CA        45.0470   60.0760   -1.5640 C.3    72  TYR72       0.1605
      3  C         45.0280   60.7650   -0.2060 C.2    72  TYR72       0.2264
      4  O         45.8380   61.6430    0.0690 O.2    72  TYR72      -0.2867
      5  CB        46.2520   60.6260   -2.3630 C.3    72  TYR72       0.0534
      6  CG        46.4600   60.0280   -3.7320 C.ar   72  TYR72      -0.0201
      7  CD1       45.5700   60.2910   -4.7680 C.ar   72  TYR72      -0.0009
      8  CD2       47.4980   59.1260   -3.9680 C.ar   72  TYR72      -0.0009
      9  CE1       45.6970   59.6660   -6.0060 C.ar   72  TYR72       0.0417
     10  CE2       47.6410   58.4870   -5.2070 C.ar   72  TYR72       0.0417
     11  CZ        46.7300   58.7590   -6.2190 C.ar   72  TYR72       0.1957
     12  OH        46.8200   58.0970   -7.4240 O.3    72  TYR72      -0.2866
     13  N         44.5930   58.7420    2.5740 N.3    74  CYS74      -0.1221
     14  CA        45.0970   57.6730    3.4250 C.3    74  CYS74       0.1808
     15  C         46.6010   57.6550    3.2780 C.2    74  CYS74       0.2601
     16  O         47.3010   56.9010    3.9530 O.2    74  CYS74      -0.2717
     17  CB        44.5010   56.3280    3.0110 C.3    74  CYS74       0.0970
     18  SG        44.8220   55.8920    1.2970 S.3    74  CYS74      -0.0800
     19  N         47.0880   58.4810    2.3630 N.am   75  LEU75      -0.1979
     20  CA        48.5170   58.6090    2.1790 C.3    75  LEU75       0.1596
     21  C         48.8710   59.8340    2.9980 C.2    75  LEU75       0.2287
     22  O         49.9870   60.3360    2.9630 O.2    75  LEU75      -0.2864
     23  CB        48.8890   58.8060    0.7070 C.3    75  LEU75       0.0297
     24  CG        48.7180   57.5630   -0.1680 C.3    75  LEU75       0.0022
     25  CD1       49.4920   57.7450   -1.4440 C.3    75  LEU75       0.0001
     26  CD2       49.2610   56.3530    0.5520 C.3    75  LEU75       0.0001
     27  N         52.0830   59.6800    4.8550 N.3    78  SER78      -0.1217
     28  CA        53.1180   58.9950    4.0990 C.3    78  SER78       0.1889
     29  C         53.4810   59.8450    2.9160 C.2    78  SER78       0.2288
     30  O         53.8810   59.3280    1.8900 O.2    78  SER78      -0.2866
     31  CB        52.5800   57.6760    3.5650 C.3    78  SER78       0.2089
     32  OG        51.5960   57.1350    4.4280 O.3    78  SER78      -0.2183
     33  N         56.8330   59.8560    0.5230 N.3    81  TRP81      -0.1241
     34  CA        56.7720   58.8850   -0.5860 C.3    81  TRP81       0.1605
     35  C         56.2000   59.5870   -1.8000 C.2    81  TRP81       0.2264
     36  O         56.7460   59.4950   -2.9040 O.2    81  TRP81      -0.2867
     37  CB        55.8480   57.7060   -0.2750 C.3    81  TRP81       0.0550
     38  CG        56.4870   56.5710    0.4340 C.ar   81  TRP81       0.0003
     39  CD1       56.1540   56.0690    1.6530 C.ar   81  TRP81       0.0946
     40  CD2       57.5890   55.7870   -0.0410 C.ar   81  TRP81       0.0152
     41  NE1       56.9800   55.0240    1.9760 N.ar   81  TRP81      -0.2442
     42  CE2       57.8670   54.8260    0.9470 C.ar   81  TRP81       0.0810
     43  CE3       58.3600   55.8020   -1.2030 C.ar   81  TRP81       0.0012
     44  CZ2       58.8930   53.8920    0.8190 C.ar   81  TRP81       0.0191
     45  CZ3       59.3750   54.8690   -1.3370 C.ar   81  TRP81       0.0001
     46  CH2       59.6330   53.9290   -0.3250 C.ar   81  TRP81       0.0015
     47  N         58.1930   59.0340   -5.1990 N.3    85  TRP85      -0.1241
     48  CA        57.6110   58.3580   -6.3530 C.3    85  TRP85       0.1605
     49  C         57.4690   59.2680   -7.5350 C.2    85  TRP85       0.2264
     50  O         57.7210   58.8900   -8.6800 O.2    85  TRP85      -0.2867
     51  CB        56.2210   57.8260   -6.0420 C.3    85  TRP85       0.0550
     52  CG        56.2050   56.8340   -4.9830 C.ar   85  TRP85       0.0003
     53  CD1       57.1590   55.9060   -4.7320 C.ar   85  TRP85       0.0946
     54  CD2       55.1260   56.5650   -4.0700 C.ar   85  TRP85       0.0152
     55  NE1       56.7600   55.0780   -3.7190 N.ar   85  TRP85      -0.2442
     56  CE2       55.5070   55.4600   -3.2930 C.ar   85  TRP85       0.0810
     57  CE3       53.8690   57.1530   -3.8330 C.ar   85  TRP85       0.0012
     58  CZ2       54.6910   54.9220   -2.2980 C.ar   85  TRP85       0.0191
     59  CZ3       53.0540   56.6160   -2.8360 C.ar   85  TRP85       0.0001
     60  CH2       53.4730   55.5120   -2.0860 C.ar   85  TRP85       0.0015
     61  N         63.0890   45.3290    5.7700 N.3   181  ARG181     -0.1245
     62  CA        62.9320   46.6660    5.2130 C.3   181  ARG181      0.1563
     63  C         63.5490   47.7870    6.0550 C.2   181  ARG181      0.2260
     64  O         64.2350   48.6550    5.5380 O.2   181  ARG181     -0.2867
     65  CB        61.4510   46.9280    5.0090 C.3   181  ARG181      0.0307
     66  CG        61.1490   48.1660    4.2170 C.3   181  ARG181      0.0489
     67  CD        59.6560   48.4830    4.1420 C.3   181  ARG181      0.2205
     68  NE        58.8860   47.3510    3.6390 N.pl3 181  ARG181     -0.0865
     69  CZ        58.6130   46.2440    4.3200 C.cat 181  ARG181      0.5346
     70  NH1       59.0420   46.0920    5.5650 N.pl3 181  ARG181      0.1354
     71  NH2       57.9020   45.2830    3.7470 N.pl3 181  ARG181      0.1354
     72  N         59.2990   36.8700    0.0790 N.3   227  HIS227     -0.1241
     73  CA        58.5710   37.9720   -0.5420 C.3   227  HIS227      0.1621
     74  C         59.4920   38.9350   -1.2620 C.2   227  HIS227      0.2264
     75  O         60.5550   39.2750   -0.7470 O.2   227  HIS227     -0.2867
     76  CB        57.7730   38.7500    0.5040 C.3   227  HIS227      0.0745
     77  CG        56.8320   39.7550   -0.0760 C.ar  227  HIS227      0.0817
     78  ND1       57.2430   40.7490   -0.9440 N.ar  227  HIS227     -0.2268
     79  CD2       55.4930   39.9140    0.0630 C.ar  227  HIS227      0.1154
     80  CE1       56.2040   41.4730   -1.3080 C.ar  227  HIS227      0.1986
     81  NE2       55.1240   40.9880   -0.7110 N.ar  227  HIS227     -0.2212
     82  N         51.9410   41.0920  -10.7060 N.3   276  ASP276     -0.1239
     83  CA        51.7010   42.4150  -10.1590 C.3   276  ASP276      0.1674
     84  C         52.4720   43.5650  -10.7530 C.2   276  ASP276      0.2266
     85  O         53.6030   43.4150  -11.1760 O.2   276  ASP276     -0.2867
     86  CB        51.9770   42.3840   -8.6760 C.3   276  ASP276      0.1410
     87  CG        51.8670   43.7210   -8.0370 C.2   276  ASP276      0.3668
     88  OD1       52.6680   44.6250   -8.3510 O.co2 276  ASP276     -0.2456
     89  OD2       50.9420   43.8680   -7.2290 O.co2 276  ASP276     -0.2456
     90  N         54.2280   46.4930   -9.6600 N.3   278  CYS278     -0.1221
     91  CA        55.6000   46.6750   -9.2480 C.3   278  CYS278      0.1808
     92  C         56.1720   45.3140   -9.4480 C.2   278  CYS278      0.2601
     93  O         55.7260   44.5950  -10.3310 O.2   278  CYS278     -0.2717
     94  CB        55.6780   47.0880   -7.7710 C.3   278  CYS278      0.0970
     95  SG        54.3760   46.4070   -6.6990 S.3   278  CYS278     -0.0800
     96  N         57.1230   44.9350   -8.6270 N.am  279  TYR279     -0.1976
     97  CA        57.6950   43.6250   -8.7340 C.3   279  TYR279      0.1639
     98  C         58.3660   43.5570  -10.0790 C.2   279  TYR279      0.2290
     99  O         58.8260   42.5040  -10.5260 O.2   279  TYR279     -0.2864
    100  CB        56.5830   42.5670   -8.5200 C.3   279  TYR279      0.0560
    101  CG        56.0740   42.5410   -7.1040 C.ar  279  TYR279     -0.0198
    102  CD1       56.9500   42.6910   -6.0700 C.ar  279  TYR279     -0.0009
    103  CD2       54.7350   42.3250   -6.8080 C.ar  279  TYR279     -0.0009
    104  CE1       56.5270   42.6340   -4.7160 C.ar  279  TYR279      0.0417
    105  CE2       54.2860   42.2650   -5.4870 C.ar  279  TYR279      0.0417
    106  CZ        55.1880   42.4040   -4.4560 C.ar  279  TYR279      0.1957
    107  OH        54.7360   42.3410   -3.1930 O.3   279  TYR279     -0.2866
    108  N         60.9500   45.3200   -7.6060 N.3   282  TRP282     -0.1241
    109  CA        61.2180   44.5940   -6.3840 C.3   282  TRP282      0.1605
    110  C         61.7840   43.2070   -6.7050 C.2   282  TRP282      0.2264
    111  O         62.4980   42.6360   -5.8790 O.2   282  TRP282     -0.2867
    112  CB        59.9280   44.4520   -5.5880 C.3   282  TRP282      0.0550
    113  CG        59.3710   45.7290   -5.0150 C.ar  282  TRP282      0.0003
    114  CD1       58.0560   46.0670   -4.9320 C.ar  282  TRP282      0.0946
    115  CD2       60.0960   46.7830   -4.3370 C.ar  282  TRP282      0.0152
    116  NE1       57.9080   47.2460   -4.2510 N.ar  282  TRP282     -0.2442
    117  CE2       59.1420   47.7140   -3.8750 C.ar  282  TRP282      0.0810
    118  CE3       61.4520   47.0300   -4.0790 C.ar  282  TRP282      0.0012
    119  CZ2       59.4940   48.8650   -3.1660 C.ar  282  TRP282      0.0191
    120  CZ3       61.8000   48.1810   -3.3740 C.ar  282  TRP282      0.0001
    121  CH2       60.8210   49.0800   -2.9210 C.ar  282  TRP282      0.0015
    122  N         48.5810   47.9820  -11.4350 N.3   331  ASP331     -0.1239
    123  CA        48.9350   46.7510  -10.7740 C.3   331  ASP331      0.1674
    124  C         48.9000   45.7980  -11.9600 C.2   331  ASP331      0.2266
    125  O         49.9160   45.5360  -12.5960 O.2   331  ASP331     -0.2867
    126  CB        47.8360   46.3870   -9.7860 C.3   331  ASP331      0.1410
    127  CG        48.1260   45.1150   -9.0320 C.2   331  ASP331      0.3668
    128  OD1       48.2260   44.0550   -9.6730 O.co2 331  ASP331     -0.2456
    129  OD2       48.2560   45.1770   -7.7940 O.co2 331  ASP331     -0.2456
    130  N         47.9140   54.5540   -9.5190 N.3   338  ASP338     -0.1225
    131  CA        48.4460   55.1020   -8.2690 C.3   338  ASP338      0.1805
    132  C         49.9490   55.3360   -8.2810 C.2   338  ASP338      0.2598
    133  O         50.7260   54.4890   -8.6980 O.2   338  ASP338     -0.2718
    134  CB        48.0350   54.2800   -7.0320 C.3   338  ASP338      0.1424
    135  CG        48.2820   52.8030   -7.1710 C.2   338  ASP338      0.3668
    136  OD1       49.4520   52.3790   -7.1570 O.co2 338  ASP338     -0.2456
    137  OD2       47.2870   52.0560   -7.2840 O.co2 338  ASP338     -0.2456
    138  N         50.3260   56.5210   -7.8250 N.am  339  PHE339     -0.1962
    139  CA        51.7090   56.9780   -7.7620 C.3   339  PHE339      0.1771
    140  C         52.7420   55.9970   -7.2900 C.2   339  PHE339      0.2620
    141  O         53.9490   56.2210   -7.4500 O.2   339  PHE339     -0.2715
    142  CB        51.7590   58.2190   -6.8980 C.3   339  PHE339      0.0574
    143  CG        51.1640   59.3980   -7.5530 C.ar  339  PHE339     -0.0200
    144  CD1       51.8630   60.0750   -8.5380 C.ar  339  PHE339     -0.0042
    145  CD2       49.8780   59.7930   -7.2430 C.ar  339  PHE339     -0.0042
    146  CE1       51.2970   61.1350   -9.2010 C.ar  339  PHE339     -0.0003
    147  CE2       49.2930   60.8540   -7.8990 C.ar  339  PHE339     -0.0003
    148  CZ        50.0090   61.5280   -8.8940 C.ar  339  PHE339     -0.0000
    149  N         52.2750   54.9230   -6.6670 N.am  340  TYR340     -0.1960
    150  CA        53.1810   53.9110   -6.2040 C.3   340  TYR340      0.1771
    151  C         53.5470   53.0560   -7.3930 C.2   340  TYR340      0.2619
    152  O         54.6900   53.0460   -7.8080 O.2   340  TYR340     -0.2715
    153  CB        52.5350   53.0820   -5.1190 C.3   340  TYR340      0.0574
    154  CG        53.2850   51.8200   -4.7850 C.ar  340  TYR340     -0.0198
    155  CD1       54.5950   51.8490   -4.3050 C.ar  340  TYR340     -0.0009
    156  CD2       52.6890   50.5820   -4.9790 C.ar  340  TYR340     -0.0009
    157  CE1       55.2710   50.6650   -4.0310 C.ar  340  TYR340      0.0417
    158  CE2       53.3560   49.4010   -4.7110 C.ar  340  TYR340      0.0417
    159  CZ        54.6420   49.4500   -4.2390 C.ar  340  TYR340      0.1957
    160  OH        55.2820   48.2630   -4.0030 O.3   340  TYR340     -0.2866
    161  N         52.5950   52.3500   -7.9850 N.am  341  HIS341     -0.1973
    162  CA        52.9880   51.5480   -9.1240 C.3   341  HIS341      0.1656
    163  C         53.4940   52.4860  -10.2230 C.2   341  HIS341      0.2291
    164  O         54.4330   52.1550  -10.9400 O.2   341  HIS341     -0.2864
    165  CB        51.8320   50.7020   -9.6480 C.3   341  HIS341      0.0771
    166  CG        51.1370   49.9110   -8.5920 C.ar  341  HIS341      0.0820
    167  ND1       50.1340   49.0120   -8.8790 N.ar  341  HIS341     -0.2267
    168  CD2       51.2110   49.9680   -7.2460 C.ar  341  HIS341      0.1154
    169  CE1       49.6140   48.5610   -7.7530 C.ar  341  HIS341      0.1986
    170  NE2       50.2540   49.1220   -6.7460 N.ar  341  HIS341     -0.2212
    171  N         57.1870   52.2620   -9.6610 N.3   344  TYR344     -0.1241
    172  CA        57.8470   50.9660   -9.7350 C.3   344  TYR344      0.1605
    173  C         57.6430   50.1590  -11.0190 C.2   344  TYR344      0.2264
    174  O         58.2540   49.1110  -11.1820 O.2   344  TYR344     -0.2867
    175  CB        57.4870   50.1460   -8.4920 C.3   344  TYR344      0.0534
    176  CG        58.1880   50.6570   -7.2380 C.ar  344  TYR344     -0.0201
    177  CD1       59.5530   50.4330   -7.0430 C.ar  344  TYR344     -0.0009
    178  CD2       57.5090   51.4010   -6.2720 C.ar  344  TYR344     -0.0009
    179  CE1       60.2190   50.9410   -5.9240 C.ar  344  TYR344      0.0417
    180  CE2       58.1700   51.9090   -5.1550 C.ar  344  TYR344      0.0417
    181  CZ        59.5210   51.6740   -4.9890 C.ar  344  TYR344      0.1957
    182  OH        60.1830   52.1570   -3.8880 O.3   344  TYR344     -0.2866
@<TRIPOS>BOND
     1   125   124    2
     2   124   123    1
     3   122   123    1
     4   174   173    2
     5    85    84    2
     6   173   172    1
     7   164   163    2
     8   123   126    1
     9    84    83    1
    10    82    83    1
    11    99    98    2
    12    93    92    2
    13   163   162    1
    14    83    86    1
    15    98    97    1
    16   126   127    1
    17   172   171    1
    18   172   175    1
    19   128   127   ar
    20    90    91    1
    21   165   162    1
    22   165   166    1
    23   130   131    1
    24    92    91    1
    25    92    96   am
    26    91    94    1
    27   146   148   ar
    28   146   144   ar
    29   162   161    1
    30   127   129   ar
    31   148   147   ar
    32   167   166   ar
    33   167   169   ar
    34    97    96    1
    35    97   100    1
    36   133   132    2
    37    50    49    2
    38    86    87    1
    39   166   168   ar
    40   144   143   ar
    41   100   101    1
    42   175   176    1
    43    88    87   ar
    44   132   131    1
    45   132   138   am
    46   131   134    1
    47    87    89   ar
    48   161   151   am
    49   147   145   ar
    50   138   139    1
    51   152   151    2
    52    94    95    1
    53   139   140    1
    54   139   142    1
    55   169   170   ar
    56   108   109    1
    57   143   145   ar
    58   143   142    1
    59    49    48    1
    60   141   140    2
    61    12    11    1
    62   151   150    1
    63   140   149   am
    64   137   135   ar
    65   168   170   ar
    66   176   177   ar
    67   176   178   ar
    68   135   136   ar
    69   135   134    1
    70   101   103   ar
    71   101   102   ar
    72   177   179   ar
    73   103   105   ar
    74   110   109    1
    75   110   111    2
    76   149   150    1
    77   109   112    1
    78    48    51    1
    79    48    47    1
    80   178   180   ar
    81    11     9   ar
    82    11    10   ar
    83   150   153    1
    84   102   104   ar
    85    51    52    1
    86     9     7   ar
    87   179   181   ar
    88   112   113    1
    89   105   106   ar
    90    10     8   ar
    91   180   181   ar
    92   153   154    1
    93   113   114   ar
    94   113   115   ar
    95   181   182    1
    96    52    53   ar
    97    52    54   ar
    98   156   154   ar
    99   156   158   ar
   100   114   116   ar
   101   154   155   ar
   102     7     6   ar
   103    53    55   ar
   104   104   106   ar
   105   158   159   ar
   106   106   107    1
   107   115   118   ar
   108   115   117   ar
   109   155   157   ar
   110   116   117   ar
   111   159   157   ar
   112   159   160    1
   113   118   120   ar
   114    54    57   ar
   115    54    56   ar
   116     8     6   ar
   117   117   119   ar
   118    57    59   ar
   119     6     5    1
   120    55    56   ar
   121   120   121   ar
   122    56    58   ar
   123   119   121   ar
   124    36    35    2
   125    59    60   ar
   126     5     2    1
   127    58    60   ar
   128     1     2    1
   129    35    34    1
   130     2     3    1
   131    25    24    1
   132    45    43   ar
   133    45    46   ar
   134    80    78   ar
   135    80    81   ar
   136    74    75    2
   137    74    73    1
   138    43    40   ar
   139    78    77   ar
   140    81    79   ar
   141    34    37    1
   142    34    33    1
   143    73    72    1
   144    73    76    1
   145    46    44   ar
   146    37    38    1
   147     3     4    2
   148    24    26    1
   149    24    23    1
   150    77    79   ar
   151    77    76    1
   152    40    38   ar
   153    40    42   ar
   154    38    39   ar
   155    23    20    1
   156    44    42   ar
   157    42    41   ar
   158    18    17    1
   159    39    41   ar
   160    30    29    2
   161    20    19    1
   162    20    21    1
   163    19    15   am
   164    13    14    1
   165    29    28    1
   166    22    21    2
   167    17    14    1
   168    15    14    1
   169    15    16    2
   170    31    28    1
   171    31    32    1
   172    68    67    1
   173    68    69    2
   174    71    69    1
   175    28    27    1
   176    67    66    1
   177    66    65    1
   178    69    70    1
   179    65    62    1
   180    62    61    1
   181    62    63    1
   182    64    63    2
