@<TRIPOS>MOLECULE
tmp/1x87A00.pdb
 194 185 0 0 0
SMALL
GASTEIGER

@<TRIPOS>ATOM
      1  N          2.1130  -14.0240   43.2380 N.3   102  ILE102     -0.1245
      2  CA         1.7570  -15.0700   44.1860 C.3   102  ILE102      0.1561
      3  C          0.2970  -14.8490   44.6180 C.2   102  ILE102      0.2260
      4  O         -0.4970  -15.8050   44.6760 O.2   102  ILE102     -0.2867
      5  CB         2.7810  -15.1260   45.3670 C.3   102  ILE102      0.0252
      6  CG1        2.4210  -16.2050   46.3910 C.3   102  ILE102      0.0019
      7  CG2        2.8550  -13.8130   46.0930 C.3   102  ILE102      0.0019
      8  CD1        2.3180  -17.6340   45.8080 C.3   102  ILE102      0.0001
      9  N         -2.6780  -17.7470   43.7360 N.3   106  THR106     -0.1218
     10  CA        -3.5110  -18.3000   44.7850 C.3   106  THR106      0.1862
     11  C         -5.0000  -17.9920   44.5790 C.2   106  THR106      0.2287
     12  O         -5.8380  -18.8670   44.8170 O.2   106  THR106     -0.2866
     13  CB        -3.0270  -17.7640   46.1350 C.3   106  THR106      0.1770
     14  OG1       -1.5960  -17.8990   46.2010 O.3   106  THR106     -0.2211
     15  CG2       -3.6850  -18.5200   47.2950 C.3   106  THR106      0.0375
     16  N         -3.7520  -23.1800   57.0490 N.3   130  ALA130     -0.1231
     17  CA        -2.7590  -22.9380   58.0650 C.3   130  ALA130      0.1694
     18  C         -1.4770  -22.5790   57.3750 C.2   130  ALA130      0.2592
     19  O         -1.2190  -23.0490   56.2550 O.2   130  ALA130     -0.2718
     20  CB        -2.5810  -24.1740   58.9230 C.3   130  ALA130      0.0304
     21  N         -0.6460  -21.7410   57.9840 N.am  131  GLY131     -0.1957
     22  CA         0.5480  -21.2170   57.3630 C.3   131  GLY131      0.1869
     23  C          0.2500  -19.8440   56.7960 C.2   131  GLY131      0.2309
     24  O         -0.5490  -19.6910   55.8500 O.2   131  GLY131     -0.2863
     25  N          3.0040  -17.9670   55.7650 N.3   133  GLY133     -0.1210
     26  CA         4.3860  -17.7030   55.4230 C.3   133  GLY133      0.1956
     27  C          4.6060  -16.9780   54.1090 C.2   133  GLY133      0.2612
     28  O          3.7740  -16.1660   53.6760 O.2   133  GLY133     -0.2717
     29  N          5.7290  -17.2270   53.4360 N.am  134  GLY134     -0.1956
     30  CA         6.1010  -16.5460   52.2060 C.3   134  GLY134      0.1869
     31  C          5.0860  -16.7240   51.0960 C.2   134  GLY134      0.2309
     32  O          4.8130  -15.7740   50.3670 O.2   134  GLY134     -0.2863
     33  N          2.0210  -18.9340   51.8940 N.3   135  GLY135     -0.1225
     34  CA         0.8030  -19.0830   52.6590 C.3   135  GLY135      0.1811
     35  C          0.1530  -17.7690   53.0010 C.2   135  GLY135      0.2280
     36  O         -1.0810  -17.6900   53.0350 O.2   135  GLY135     -0.2866
     37  N         -4.7690  -20.6910   60.4860 N.3   151  ILE151     -0.1231
     38  CA        -4.0090  -20.9970   61.7180 C.3   151  ILE151      0.1692
     39  C         -2.5350  -20.7100   61.5160 C.2   151  ILE151      0.2592
     40  O         -1.9630  -21.1480   60.5440 O.2   151  ILE151     -0.2718
     41  CB        -4.1610  -22.4900   62.1730 C.3   151  ILE151      0.0266
     42  CG1       -5.5940  -23.0110   62.0040 C.3   151  ILE151      0.0019
     43  CG2       -3.6530  -22.6830   63.6140 C.3   151  ILE151      0.0020
     44  CD1       -6.6390  -21.9950   62.2790 C.3   151  ILE151      0.0001
     45  N         -1.8450  -20.0260   62.4100 N.am  152  GLU152     -0.1966
     46  CA        -0.4150  -19.7730   62.2600 C.3   152  GLU152      0.1733
     47  C          0.2240  -19.7550   63.6590 C.2   152  GLU152      0.2616
     48  O         -0.3100  -19.1180   64.5770 O.2   152  GLU152     -0.2715
     49  CB        -0.1980  -18.4850   61.4320 C.3   152  GLU152      0.0429
     50  CG         1.1840  -17.8370   61.4700 C.3   152  GLU152      0.1163
     51  CD         2.3150  -18.7240   60.9530 C.2   152  GLU152      0.3649
     52  OE1        2.2980  -19.1370   59.7670 O.co2 152  GLU152     -0.2457
     53  OE2        3.2540  -18.9710   61.7480 O.co2 152  GLU152     -0.2457
     54  N          1.3130  -20.5010   63.8870 N.am  153  VAL153     -0.1963
     55  CA         1.9920  -20.5740   65.1810 C.3   153  VAL153      0.1727
     56  C          2.6890  -19.2810   65.5690 C.2   153  VAL153      0.2616
     57  O          2.9150  -19.0420   66.7490 O.2   153  VAL153     -0.2715
     58  CB         3.0820  -21.6870   65.2670 C.3   153  VAL153      0.0290
     59  CG1        2.4530  -23.0440   65.3960 C.3   153  VAL153      0.0023
     60  CG2        4.0310  -21.6260   64.0680 C.3   153  VAL153      0.0023
     61  N          3.0890  -18.4320   64.6350 N.am  154  ASP154     -0.1971
     62  CA         3.8750  -17.2540   64.9640 C.3   154  ASP154      0.1709
     63  C          2.9790  -16.0130   65.0270 C.2   154  ASP154      0.2293
     64  O          2.5530  -15.5120   63.9880 O.2   154  ASP154     -0.2864
     65  CB         4.9980  -17.0800   63.9460 C.3   154  ASP154      0.1436
     66  CG         5.9140  -15.9410   64.2970 C.2   154  ASP154      0.3671
     67  OD1        5.5140  -15.0970   65.1290 O.co2 154  ASP154     -0.2456
     68  OD2        7.0580  -15.8090   63.8190 O.co2 154  ASP154     -0.2456
     69  N          4.2760  -12.9480   63.0740 N.3   157  ARG157     -0.1245
     70  CA         4.0450  -13.1580   61.6600 C.3   157  ARG157      0.1563
     71  C          2.6170  -12.7850   61.3330 C.2   157  ARG157      0.2260
     72  O          2.3670  -12.1000   60.3350 O.2   157  ARG157     -0.2867
     73  CB         4.2590  -14.6200   61.3030 C.3   157  ARG157      0.0307
     74  CG         4.2030  -14.9100   59.8240 C.3   157  ARG157      0.0489
     75  CD         5.5560  -15.1520   59.2440 C.3   157  ARG157      0.2205
     76  NE         6.0310  -16.4830   59.5840 N.pl3 157  ARG157     -0.0865
     77  CZ         7.3020  -16.8210   59.8070 C.cat 157  ARG157      0.5346
     78  NH1        8.2800  -15.9230   59.7680 N.pl3 157  ARG157      0.1354
     79  NH2        7.5930  -18.0860   60.0910 N.pl3 157  ARG157      0.1354
     80  N         -1.9760  -20.3310   66.8360 N.3   195  GLY195     -0.1210
     81  CA        -2.3020  -21.7140   67.0990 C.3   195  GLY195      0.1956
     82  C         -1.4400  -22.6670   66.2920 C.2   195  GLY195      0.2612
     83  O         -0.7700  -22.2970   65.3080 O.2   195  GLY195     -0.2717
     84  N         -1.4170  -23.9310   66.6890 N.am  196  ASN196     -0.1960
     85  CA        -0.6850  -24.9680   66.0190 C.3   196  ASN196      0.1819
     86  C         -1.7540  -25.7960   65.3220 C.2   196  ASN196      0.2621
     87  O         -2.6630  -26.3050   65.9720 O.2   196  ASN196     -0.2715
     88  CB         0.1100  -25.7510   67.0680 C.3   196  ASN196      0.1195
     89  CG         1.0380  -26.7590   66.4620 C.2   196  ASN196      0.2630
     90  OD1        0.6190  -27.5800   65.6530 O.2   196  ASN196     -0.2716
     91  ND2        2.3070  -26.7250   66.8660 N.am  196  ASN196     -0.0877
     92  N         -1.7380  -25.9100   63.9960 N.am  197  ALA197     -0.1977
     93  CA        -2.7600  -26.6300   63.2430 C.3   197  ALA197      0.1597
     94  C         -2.9210  -28.0600   63.7240 C.2   197  ALA197      0.2287
     95  O         -4.0240  -28.5810   63.7000 O.2   197  ALA197     -0.2864
     96  CB        -2.4390  -26.6150   61.7520 C.3   197  ALA197      0.0319
     97  N         -0.8850  -24.8010   54.1330 N.3   217  GLN217     -0.1231
     98  CA         0.4320  -24.3560   53.6360 C.3   217  GLN217      0.1698
     99  C          1.3960  -24.1870   54.8050 C.2   217  GLN217      0.2593
    100  O          2.2010  -23.2600   54.8280 O.2   217  GLN217     -0.2718
    101  CB         0.3240  -23.0510   52.8270 C.3   217  GLN217      0.0381
    102  CG        -0.2010  -23.2440   51.4430 C.3   217  GLN217      0.0905
    103  CD        -0.1020  -21.9970   50.5660 C.2   217  GLN217      0.2608
    104  OE1        0.9160  -21.3000   50.5710 O.2   217  GLN217     -0.2717
    105  NE2       -1.1620  -21.7230   49.7980 N.am  217  GLN217     -0.0878
    106  N          1.3620  -25.0550   55.8190 N.am  218  THR218     -0.1939
    107  CA         2.4520  -25.1740   56.7920 C.3   218  THR218      0.2028
    108  C          3.7170  -25.7020   56.0880 C.2   218  THR218      0.2642
    109  O          3.6420  -26.2490   54.9870 O.2   218  THR218     -0.2714
    110  CB         2.1030  -26.1320   57.9270 C.3   218  THR218      0.1808
    111  OG1        1.8510  -27.4410   57.3960 O.3   218  THR218     -0.2208
    112  CG2        0.9230  -25.6500   58.7250 C.3   218  THR218      0.0379
    113  N          4.8890  -25.6050   56.7070 N.am  219  SER219     -0.1949
    114  CA         6.1420  -26.0890   56.1600 C.3   219  SER219      0.1924
    115  C          6.3320  -27.5720   56.4620 C.2   219  SER219      0.2314
    116  O          7.3520  -27.9830   57.0230 O.2   219  SER219     -0.2863
    117  CB         7.3060  -25.2590   56.7170 C.3   219  SER219      0.2116
    118  OG         7.1750  -25.0120   58.1120 O.3   219  SER219     -0.2180
    119  N          6.9450  -29.9180   54.4350 N.3   221  HIS221     -0.1241
    120  CA         8.0720  -30.4140   53.6250 C.3   221  HIS221      0.1621
    121  C          9.3950  -30.4280   54.4260 C.2   221  HIS221      0.2264
    122  O         10.3700  -31.0850   54.0240 O.2   221  HIS221     -0.2867
    123  CB         8.2320  -29.5220   52.3930 C.3   221  HIS221      0.0745
    124  CG         8.6540  -28.1260   52.7310 C.ar  221  HIS221      0.0817
    125  ND1        7.7950  -27.2040   53.2800 N.ar  221  HIS221     -0.2268
    126  CD2        9.8610  -27.5190   52.6640 C.ar  221  HIS221      0.1154
    127  CE1        8.4480  -26.0810   53.5170 C.ar  221  HIS221      0.1986
    128  NE2        9.7040  -26.2480   53.1500 N.ar  221  HIS221     -0.2212
    129  N         10.9890  -26.5660   59.7280 N.3   226  GLY226     -0.1210
    130  CA         9.7880  -25.9120   59.2550 C.3   226  GLY226      0.1956
    131  C          8.6320  -26.1470   60.1930 C.2   226  GLY226      0.2612
    132  O          8.2090  -25.2420   60.9020 O.2   226  GLY226     -0.2717
    133  N          8.1070  -27.3630   60.2520 N.am  227  TYR227     -0.1962
    134  CA         6.8830  -27.6600   60.9370 C.3   227  TYR227      0.1771
    135  C          7.1360  -27.5840   62.4160 C.2   227  TYR227      0.2619
    136  O          8.1660  -28.0950   62.8750 O.2   227  TYR227     -0.2715
    137  CB         6.4120  -29.0510   60.5510 C.3   227  TYR227      0.0574
    138  CG         4.9940  -29.2910   60.9020 C.ar  227  TYR227     -0.0198
    139  CD1        3.9800  -28.9450   60.0100 C.ar  227  TYR227     -0.0009
    140  CD2        4.6390  -29.8410   62.1450 C.ar  227  TYR227     -0.0009
    141  CE1        2.6500  -29.1370   60.3240 C.ar  227  TYR227      0.0417
    142  CE2        3.2860  -30.0400   62.4760 C.ar  227  TYR227      0.0417
    143  CZ         2.3030  -29.6840   61.5570 C.ar  227  TYR227      0.1957
    144  OH         0.9810  -29.8930   61.8400 O.3   227  TYR227     -0.2866
    145  N          6.2620  -26.9340   63.1950 N.am  228  ILE228     -0.1977
    146  CA         6.3280  -26.9030   64.6480 C.3   228  ILE228      0.1596
    147  C          5.4700  -28.0480   65.2360 C.2   228  ILE228      0.2287
    148  O          4.2680  -28.1170   65.0070 O.2   228  ILE228     -0.2864
    149  CB         5.8440  -25.5270   65.1820 C.3   228  ILE228      0.0276
    150  CG1        6.5970  -24.3630   64.5080 C.3   228  ILE228      0.0022
    151  CG2        5.9920  -25.4480   66.6830 C.3   228  ILE228      0.0022
    152  CD1        8.0630  -24.2500   64.8770 C.3   228  ILE228      0.0001
    153  N         -1.7410  -28.2840   49.1120 N.3   274  TYR274     -0.1227
    154  CA        -1.2310  -27.1100   48.4230 C.3   274  TYR274      0.1736
    155  C          0.2950  -27.2240   48.2460 C.2   274  TYR274      0.2596
    156  O          1.0360  -26.2690   48.4950 O.2   274  TYR274     -0.2718
    157  CB        -1.6470  -25.8230   49.1640 C.3   274  TYR274      0.0548
    158  CG        -2.0050  -24.6780   48.2300 C.ar  274  TYR274     -0.0200
    159  CD1       -1.0860  -24.2070   47.2840 C.ar  274  TYR274     -0.0009
    160  CD2       -3.2630  -24.0870   48.2640 C.ar  274  TYR274     -0.0009
    161  CE1       -1.4010  -23.1830   46.4220 C.ar  274  TYR274      0.0417
    162  CE2       -3.5980  -23.0370   47.3980 C.ar  274  TYR274      0.0417
    163  CZ        -2.6540  -22.5970   46.4830 C.ar  274  TYR274      0.1957
    164  OH        -2.9680  -21.5710   45.6210 O.3   274  TYR274     -0.2866
    165  N          0.8140  -28.3830   47.8350 N.am  275  GLY275     -0.1942
    166  CA         2.2110  -28.5740   47.4260 C.3   275  GLY275      0.2014
    167  C          3.2210  -28.6150   48.5490 C.2   275  GLY275      0.2638
    168  O          4.4160  -28.4240   48.3110 O.2   275  GLY275     -0.2714
    169  N          2.8200  -28.8280   49.8050 N.am  276  ASN276     -0.1972
    170  CA         3.7270  -28.8020   50.9530 C.3   276  ASN276      0.1688
    171  C          4.1430  -30.1890   51.4210 C.2   276  ASN276      0.2292
    172  O          4.7480  -30.3150   52.4690 O.2   276  ASN276     -0.2864
    173  CB         3.1270  -27.9730   52.0900 C.3   276  ASN276      0.1181
    174  CG         1.9530  -28.6450   52.7650 C.2   276  ASN276      0.2629
    175  OD1        1.2960  -29.4940   52.1880 O.2   276  ASN276     -0.2716
    176  ND2        1.6860  -28.2570   54.0040 N.am  276  ASN276     -0.0877
    177  N         -3.5290  -29.6540   44.5590 N.3   296  PHE296     -0.1227
    178  CA        -4.2360  -28.5540   43.9510 C.3   296  PHE296      0.1736
    179  C         -3.9600  -28.4920   42.4370 C.2   296  PHE296      0.2595
    180  O         -4.8520  -28.1200   41.6720 O.2   296  PHE296     -0.2718
    181  CB        -3.9410  -27.2340   44.7070 C.3   296  PHE296      0.0547
    182  CG        -2.6540  -26.5570   44.3010 C.ar  296  PHE296     -0.0202
    183  CD1       -1.4120  -27.0760   44.6870 C.ar  296  PHE296     -0.0042
    184  CD2       -2.6890  -25.4090   43.5110 C.ar  296  PHE296     -0.0042
    185  CE1       -0.2370  -26.4400   44.2900 C.ar  296  PHE296     -0.0003
    186  CE2       -1.5160  -24.7640   43.1300 C.ar  296  PHE296     -0.0003
    187  CZ        -0.3020  -25.2750   43.5130 C.ar  296  PHE296     -0.0000
    188  N         -2.8080  -28.9000   41.9010 N.am  297  VAL297     -0.1980
    189  CA        -2.6610  -28.7710   40.4570 C.3   297  VAL297      0.1595
    190  C         -3.4880  -29.7870   39.6800 C.2   297  VAL297      0.2287
    191  O         -4.2790  -29.3780   38.8270 O.2   297  VAL297     -0.2864
    192  CB        -1.1880  -28.4790   39.8940 C.3   297  VAL297      0.0276
    193  CG1       -0.2540  -27.8600   40.9530 C.3   297  VAL297      0.0022
    194  CG2       -0.5710  -29.6240   39.1260 C.3   297  VAL297      0.0022
@<TRIPOS>BOND
     1   191   190    2
     2   194   192    1
     3   190   189    1
     4   192   189    1
     5   192   193    1
     6   189   188    1
     7   180   179    2
     8   188   179   am
     9   179   178    1
    10   186   184   ar
    11   186   187   ar
    12     1     2    1
    13   184   182   ar
    14   187   185   ar
    15     9    10    1
    16   178   177    1
    17   178   181    1
    18     2     3    1
    19     2     5    1
    20   185   183   ar
    21   182   183   ar
    22   182   181    1
    23    11    10    1
    24    11    12    2
    25     3     4    2
    26    10    13    1
    27     5     7    1
    28     5     6    1
    29   164   163    1
    30     8     6    1
    31    13    14    1
    32    13    15    1
    33   161   163   ar
    34   161   159   ar
    35   163   162   ar
    36   159   158   ar
    37   162   160   ar
    38   166   165    1
    39   166   167    1
    40   165   155   am
    41   158   160   ar
    42   158   157    1
    43   155   154    1
    44   155   156    2
    45   168   167    2
    46   154   153    1
    47   154   157    1
    48   167   169   am
    49   105   103   am
    50   169   170    1
    51    32    31    2
    52   103   104    2
    53   103   102    1
    54   170   171    1
    55   170   173    1
    56    31    30    1
    57   171   172    2
    58   102   101    1
    59    33    34    1
    60   173   174    1
    61   175   174    2
    62    30    29    1
    63   123   124    1
    64   123   120    1
    65    34    35    1
    66   126   124   ar
    67   126   128   ar
    68   124   125   ar
    69   174   176   am
    70   101    98    1
    71    35    36    2
    72   128   127   ar
    73   125   127   ar
    74    29    27   am
    75   120   121    1
    76   120   119    1
    77    98    97    1
    78    98    99    1
    79    28    27    2
    80   122   121    2
    81    27    26    1
    82    99   100    2
    83    99   106   am
    84   109   108    2
    85    26    25    1
    86   106   107    1
    87    24    23    2
    88   108   113   am
    89   108   107    1
    90   114   115    1
    91   114   113    1
    92   114   117    1
    93    19    18    2
    94   115   116    2
    95   117   118    1
    96   107   110    1
    97    23    22    1
    98    16    17    1
    99    22    21    1
   100    18    21   am
   101    18    17    1
   102   111   110    1
   103   110   112    1
   104    17    20    1
   105    75    76    1
   106    75    74    1
   107   130   129    1
   108   130   131    1
   109    76    77    2
   110    52    51   ar
   111    78    77    1
   112    77    79    1
   113    74    73    1
   114   139   141   ar
   115   139   138   ar
   116   131   133   am
   117   131   132    2
   118   133   134    1
   119   141   143   ar
   120    72    71    2
   121    37    38    1
   122    40    39    2
   123   137   138    1
   124   137   134    1
   125   138   140   ar
   126   134   135    1
   127    51    50    1
   128    51    53   ar
   129    73    70    1
   130    71    70    1
   131    49    50    1
   132    49    46    1
   133    39    38    1
   134    39    45   am
   135   143   144    1
   136   143   142   ar
   137    70    69    1
   138    38    41    1
   139    96    93    1
   140    42    41    1
   141    42    44    1
   142   140   142   ar
   143    41    43    1
   144    46    45    1
   145    46    47    1
   146   135   136    2
   147   135   145   am
   148   145   146    1
   149    93    94    1
   150    93    92    1
   151    47    54   am
   152    47    48    2
   153    95    94    2
   154    68    66   ar
   155    54    55    1
   156    65    66    1
   157    65    62    1
   158    64    63    2
   159    92    86   am
   160    60    58    1
   161    66    67   ar
   162   150   152    1
   163   150   149    1
   164    61    62    1
   165    61    56   am
   166   146   149    1
   167   146   147    1
   168    62    63    1
   169   148   147    2
   170    55    58    1
   171    55    56    1
   172   149   151    1
   173    58    59    1
   174    83    82    2
   175    86    87    2
   176    86    85    1
   177    56    57    2
   178    90    89    2
   179    85    84    1
   180    85    88    1
   181    82    84   am
   182    82    81    1
   183    89    91   am
   184    89    88    1
   185    80    81    1
