@<TRIPOS>MOLECULE
tmp/1x8bA00.pdb
 163 152 0 0 0
SMALL
GASTEIGER

@<TRIPOS>ATOM
      1  N          0.9030   58.8430   20.8610 N.3    15  ILE15      -0.1231
      2  CA         1.7360   57.6890   20.6740 C.3    15  ILE15       0.1692
      3  C          1.0400   56.3780   20.9810 C.2    15  ILE15       0.2592
      4  O          1.5570   55.3490   20.6290 O.2    15  ILE15      -0.2718
      5  CB         3.0290   57.7840   21.4710 C.3    15  ILE15       0.0266
      6  CG1        2.7610   57.9240   22.9830 C.3    15  ILE15       0.0019
      7  CG2        3.8850   58.9910   20.9540 C.3    15  ILE15       0.0020
      8  CD1        4.1020   58.1090   23.7560 C.3    15  ILE15       0.0001
      9  N         -0.1350   56.4170   21.5900 N.am   16  GLY16      -0.1957
     10  CA        -0.8560   55.1840   21.8480 C.3    16  GLY16       0.1869
     11  C         -2.3240   55.4610   22.0710 C.2    16  GLY16       0.2309
     12  O         -2.7070   56.5850   22.4190 O.2    16  GLY16      -0.2863
     13  N         -2.3880   57.9240   24.9310 N.3    23  VAL23      -0.1245
     14  CA        -1.0920   58.2870   25.5440 C.3    23  VAL23       0.1561
     15  C         -0.4250   59.2960   24.6110 C.2    23  VAL23       0.2260
     16  O         -0.4320   59.1220   23.3630 O.2    23  VAL23      -0.2867
     17  CB        -0.1970   57.0600   25.6600 C.3    23  VAL23       0.0252
     18  CG1        1.1500   57.4260   26.3120 C.3    23  VAL23       0.0019
     19  CG2       -0.8770   55.9690   26.4710 C.3    23  VAL23       0.0019
     20  N          5.6990   60.4790   28.7890 N.3    36  ALA36      -0.1245
     21  CA         4.5640   59.8510   28.1550 C.3    36  ALA36       0.1562
     22  C          3.3890   60.0700   29.1590 C.2    36  ALA36       0.2260
     23  O          3.5050   59.6660   30.3400 O.2    36  ALA36      -0.2867
     24  CB         4.8500   58.3870   28.0300 C.3    36  ALA36       0.0290
     25  N         -0.6380   59.3560   29.9090 N.3    38  LYS38      -0.1245
     26  CA        -1.8570   58.6320   29.5430 C.3    38  LYS38       0.1561
     27  C         -3.0280   59.4050   30.0950 C.2    38  LYS38       0.2260
     28  O         -3.0790   59.7290   31.2850 O.2    38  LYS38      -0.2867
     29  CB        -1.8540   57.2030   30.0780 C.3    38  LYS38       0.0271
     30  CG        -2.8280   56.3070   29.3580 C.3    38  LYS38       0.0035
     31  CD        -3.7850   55.5190   30.1810 C.3    38  LYS38       0.0206
     32  CE        -3.2360   54.8420   31.4090 C.3    38  LYS38       0.1093
     33  NZ        -4.3930   54.3850   32.2230 N.3    38  LYS38      -0.1314
     34  N         -3.6440   50.9260   39.1010 N.3    56  GLU56      -0.1245
     35  CA        -2.5530   51.2530   38.2170 C.3    56  GLU56       0.1567
     36  C         -1.6090   52.3120   38.8800 C.2    56  GLU56       0.2260
     37  O         -0.3930   52.2380   38.7740 O.2    56  GLU56      -0.2867
     38  CB        -3.0810   51.7200   36.8490 C.3    56  GLU56       0.0388
     39  CG        -1.9280   52.1630   35.8780 C.3    56  GLU56       0.1160
     40  CD        -2.4690   52.5440   34.4650 C.2    56  GLU56       0.3649
     41  OE1       -3.6730   52.8390   34.3540 O.co2  56  GLU56      -0.2457
     42  OE2       -1.6950   52.5380   33.4770 O.co2  56  GLU56      -0.2457
     43  N          2.1880   51.8480   40.0780 N.3    60  HIS60      -0.1241
     44  CA         3.2550   52.7750   39.6860 C.3    60  HIS60       0.1621
     45  C          3.9120   53.4590   40.8390 C.2    60  HIS60       0.2264
     46  O          5.1400   53.6020   40.7820 O.2    60  HIS60      -0.2867
     47  CB         2.7530   53.9000   38.7710 C.3    60  HIS60       0.0745
     48  CG         2.8990   53.5650   37.3650 C.ar   60  HIS60       0.0817
     49  ND1        4.1260   53.2790   36.7930 N.ar   60  HIS60      -0.2268
     50  CD2        1.9750   53.4410   36.3900 C.ar   60  HIS60       0.1154
     51  CE1        3.9340   52.9700   35.5230 C.ar   60  HIS60       0.1986
     52  NE2        2.6500   53.0570   35.2560 N.ar   60  HIS60      -0.2212
     53  N          9.0770   50.9640   33.5270 N.3    70  VAL70      -0.1245
     54  CA         8.8720   52.3790   33.1430 C.3    70  VAL70       0.1561
     55  C          8.6620   53.2000   34.4640 C.2    70  VAL70       0.2260
     56  O          7.8520   52.8460   35.3100 O.2    70  VAL70      -0.2867
     57  CB         7.6400   52.4930   32.2440 C.3    70  VAL70       0.0252
     58  CG1        7.2330   53.9720   32.0680 C.3    70  VAL70       0.0019
     59  CG2        7.9780   51.8950   30.8280 C.3    70  VAL70       0.0019
     60  N         -1.7960   60.0540   34.0390 N.3    84  ILE84      -0.1245
     61  CA        -0.5930   59.4330   34.6420 C.3    84  ILE84       0.1561
     62  C          0.5740   59.8730   33.7430 C.2    84  ILE84       0.2260
     63  O          0.5280   59.7320   32.5020 O.2    84  ILE84      -0.2867
     64  CB        -0.7520   57.9100   34.7550 C.3    84  ILE84       0.0252
     65  CG1        0.5500   57.2090   35.2320 C.3    84  ILE84       0.0019
     66  CG2       -1.1430   57.2790   33.4280 C.3    84  ILE84       0.0019
     67  CD1        0.5250   56.9350   36.6380 C.3    84  ILE84       0.0001
     68  N          4.3990   59.3180   32.9740 N.3    86  ASN86      -0.1225
     69  CA         5.4900   58.3550   33.1010 C.3    86  ASN86       0.1785
     70  C          6.7230   58.7400   32.2640 C.2    86  ASN86       0.2597
     71  O          6.6920   59.6390   31.3670 O.2    86  ASN86      -0.2718
     72  CB         5.0000   57.0190   32.5940 C.3    86  ASN86       0.1169
     73  CG         4.0050   56.3230   33.5890 C.2    86  ASN86       0.2627
     74  OD1        3.9370   56.6650   34.7770 O.2    86  ASN86      -0.2716
     75  ND2        3.2170   55.4040   33.0620 N.am   86  ASN86      -0.0877
     76  N          7.8210   58.0500   32.5670 N.am   87  GLU87      -0.1965
     77  CA         9.0190   58.1220   31.7210 C.3    87  GLU87       0.1733
     78  C          8.6820   57.8430   30.2500 C.2    87  GLU87       0.2616
     79  O          7.8610   56.9320   29.9060 O.2    87  GLU87      -0.2715
     80  CB         9.9850   57.0170   32.2410 C.3    87  GLU87       0.0429
     81  CG        11.1480   56.6740   31.3050 C.3    87  GLU87       0.1163
     82  CD        12.0280   55.5690   31.9260 C.2    87  GLU87       0.3649
     83  OE1       11.5780   54.8610   32.8510 O.co2  87  GLU87      -0.2457
     84  OE2       13.1880   55.4210   31.5360 O.co2  87  GLU87      -0.2457
     85  N          9.2930   58.6150   29.3430 N.am   88  TYR88      -0.1960
     86  CA         9.0780   58.3790   27.9360 C.3    88  TYR88       0.1771
     87  C         10.2290   57.5380   27.4020 C.2    88  TYR88       0.2620
     88  O         11.3990   57.8660   27.6510 O.2    88  TYR88      -0.2715
     89  CB         9.0880   59.7180   27.1990 C.3    88  TYR88       0.0574
     90  CG         9.0860   59.5350   25.6730 C.ar   88  TYR88      -0.0198
     91  CD1        7.9810   59.0020   25.0090 C.ar   88  TYR88      -0.0009
     92  CD2       10.1740   59.9340   24.9090 C.ar   88  TYR88      -0.0009
     93  CE1        7.9770   58.8690   23.5830 C.ar   88  TYR88       0.0417
     94  CE2       10.1930   59.8180   23.5010 C.ar   88  TYR88       0.0417
     95  CZ         9.1040   59.2650   22.8500 C.ar   88  TYR88       0.1957
     96  OH         9.1290   59.1640   21.4540 O.3    88  TYR88      -0.2866
     97  N          9.9250   56.4750   26.6570 N.am   89  CYS89      -0.1954
     98  CA        10.9650   55.5940   26.0720 C.3    89  CYS89       0.1843
     99  C         11.0500   55.8680   24.5810 C.2    89  CYS89       0.2625
    100  O         10.1120   55.6170   23.8270 O.2    89  CYS89      -0.2714
    101  CB        10.5690   54.1240   26.3110 C.3    89  CYS89       0.0997
    102  SG        10.4570   53.7330   28.1040 S.3    89  CYS89      -0.0797
    103  N         12.1830   56.4180   24.1400 N.am   90  ASN90      -0.1972
    104  CA        12.2290   56.9430   22.7670 C.3    90  ASN90       0.1688
    105  C         12.4680   55.8990   21.7070 C.2    90  ASN90       0.2292
    106  O         12.4240   56.1970   20.5260 O.2    90  ASN90      -0.2864
    107  CB        13.2340   58.0440   22.6630 C.3    90  ASN90       0.1181
    108  CG        14.5640   57.5690   22.5390 C.2    90  ASN90       0.2629
    109  OD1       14.8580   56.4590   22.9920 O.2    90  ASN90      -0.2716
    110  ND2       15.4650   58.3960   21.8240 N.am   90  ASN90      -0.0877
    111  N         10.4020   53.2590   21.3050 N.3    92  GLY92      -0.1210
    112  CA         9.1140   52.7090   20.8820 C.3    92  GLY92       0.1956
    113  C          8.8070   51.3810   21.5740 C.2    92  GLY92       0.2612
    114  O          9.5010   51.0030   22.5130 O.2    92  GLY92      -0.2717
    115  N          7.7690   50.6730   21.0980 N.am   93  SER93      -0.1952
    116  CA         7.4280   49.4160   21.7670 C.3    93  SER93       0.1924
    117  C          8.1950   48.2170   21.1560 C.2    93  SER93       0.2314
    118  O          8.6240   48.2480   19.9780 O.2    93  SER93      -0.2863
    119  CB         5.9360   49.1480   21.6580 C.3    93  SER93       0.2116
    120  OG         5.6140   48.9480   20.2710 O.3    93  SER93      -0.2180
    121  N          6.4430   47.0880   17.9730 N.3    96  ASP96      -0.1239
    122  CA         6.8000   47.7500   16.7460 C.3    96  ASP96       0.1674
    123  C          8.1450   47.2780   16.1780 C.2    96  ASP96       0.2266
    124  O          8.3130   47.1950   14.9370 O.2    96  ASP96      -0.2867
    125  CB         6.8000   49.2460   16.9660 C.3    96  ASP96       0.1410
    126  CG         5.3250   49.8260   16.9540 C.2    96  ASP96       0.3668
    127  OD1        5.1320   51.0410   17.1860 O.co2  96  ASP96      -0.2456
    128  OD2        4.3260   49.1100   16.7080 O.co2  96  ASP96      -0.2456
    129  N          3.5060   46.0120   25.5590 N.3   141  ASN141     -0.1240
    130  CA         3.6910   46.5460   26.9080 C.3   141  ASN141      0.1653
    131  C          5.1530   46.5610   27.3430 C.2   141  ASN141      0.2266
    132  O          5.4740   46.7780   28.5500 O.2   141  ASN141     -0.2867
    133  CB         2.7730   45.7960   27.9470 C.3   141  ASN141      0.1155
    134  CG         1.3270   46.0470   27.6840 C.2   141  ASN141      0.2627
    135  OD1        0.9490   47.0130   27.0290 O.2   141  ASN141     -0.2716
    136  ND2        0.4820   45.1800   28.2030 N.am  141  ASN141     -0.0877
    137  N          8.7450   48.4420   26.4600 N.3   143  PHE143     -0.1241
    138  CA         9.2520   49.6300   25.7390 C.3   143  PHE143      0.1605
    139  C         10.7710   49.6830   25.6670 C.2   143  PHE143      0.2264
    140  O         11.5030   49.1230   26.5140 O.2   143  PHE143     -0.2867
    141  CB         8.6850   50.9240   26.3970 C.3   143  PHE143      0.0534
    142  CG         7.2150   50.9360   26.3620 C.ar  143  PHE143     -0.0203
    143  CD1        6.5910   51.3190   25.1930 C.ar  143  PHE143     -0.0042
    144  CD2        6.4630   50.4330   27.4530 C.ar  143  PHE143     -0.0042
    145  CE1        5.1760   51.2550   25.0510 C.ar  143  PHE143     -0.0003
    146  CE2        5.0020   50.3900   27.3210 C.ar  143  PHE143     -0.0003
    147  CZ         4.4070   50.7950   26.1320 C.ar  143  PHE143     -0.0000
    148  N          2.7110   49.6580   31.0770 N.3   153  ASP153     -0.1225
    149  CA         1.3000   49.3600   31.1410 C.3   153  ASP153      0.1805
    150  C          0.9620   48.5030   32.3830 C.2   153  ASP153      0.2597
    151  O          0.7150   47.2780   32.2780 O.2   153  ASP153     -0.2718
    152  CB         0.7360   48.7090   29.8600 C.3   153  ASP153      0.1424
    153  CG        -0.7990   48.7750   29.8700 C.2   153  ASP153      0.3668
    154  OD1       -1.4030   48.7240   28.7690 O.co2 153  ASP153     -0.2456
    155  OD2       -1.4460   49.0110   30.9400 O.co2 153  ASP153     -0.2456
    156  N          0.8390   49.1820   33.5290 N.am  154  LEU154     -0.1979
    157  CA         0.5830   48.4830   34.8040 C.3   154  LEU154      0.1596
    158  C         -0.9310   48.3420   35.0530 C.2   154  LEU154      0.2287
    159  O         -1.3510   48.1620   36.1890 O.2   154  LEU154     -0.2864
    160  CB         1.2550   49.2340   35.9750 C.3   154  LEU154      0.0297
    161  CG         2.7680   49.4140   35.8300 C.3   154  LEU154      0.0022
    162  CD1        3.3820   49.8450   37.1940 C.3   154  LEU154      0.0001
    163  CD2        3.5030   48.1550   35.2580 C.3   154  LEU154      0.0001
@<TRIPOS>BOND
     1   124   123    2
     2   123   122    1
     3   128   126   ar
     4   122   125    1
     5   122   121    1
     6   126   125    1
     7   126   127   ar
     8   118   117    2
     9   120   119    1
    10   106   105    2
    11     4     3    2
    12     2     1    1
    13     2     3    1
    14     2     5    1
    15   112   111    1
    16   112   113    1
    17     7     5    1
    18     3     9   am
    19   115   113   am
    20   115   116    1
    21   117   116    1
    22    96    95    1
    23     5     6    1
    24   113   114    2
    25     9    10    1
    26   119   116    1
    27   105   104    1
    28   110   108   am
    29    10    11    1
    30    11    12    2
    31   108   107    1
    32   108   109    2
    33   107   104    1
    34   104   103    1
    35    95    94   ar
    36    95    93   ar
    37     6     8    1
    38    16    15    2
    39    94    92   ar
    40    93    91   ar
    41   100    99    2
    42   103    99   am
    43    99    98    1
    44    15    14    1
    45    92    90   ar
    46    13    14    1
    47    91    90   ar
    48   145   143   ar
    49   145   147   ar
    50   143   142   ar
    51    14    17    1
    52   129   130    1
    53    17    18    1
    54    17    19    1
    55   139   138    1
    56   139   140    2
    57    90    89    1
    58   138   141    1
    59   138   137    1
    60    98   101    1
    61    98    97    1
    62   147   146   ar
    63   101   102    1
    64   142   141    1
    65   142   144   ar
    66    97    87   am
    67   130   131    1
    68   130   133    1
    69   135   134    2
    70    89    86    1
    71   146   144   ar
    72   131   132    2
    73    87    88    2
    74    87    86    1
    75   134   133    1
    76   134   136   am
    77    86    85    1
    78    24    21    1
    79    21    20    1
    80    21    22    1
    81   154   153   ar
    82    22    23    2
    83    85    78   am
    84    30    29    1
    85    30    31    1
    86    26    25    1
    87    26    29    1
    88    26    27    1
    89   152   153    1
    90   152   149    1
    91   153   155   ar
    92    79    78    2
    93    27    28    2
    94    31    32    1
    95    78    77    1
    96    59    57    1
    97   148   149    1
    98   149   150    1
    99    81    82    1
   100    81    80    1
   101    71    70    2
   102    32    33    1
   103    84    82   ar
   104    77    80    1
   105    77    76    1
   106    82    83   ar
   107    58    57    1
   108    57    54    1
   109    70    76   am
   110    70    69    1
   111   151   150    2
   112   150   156   am
   113    63    62    2
   114    72    69    1
   115    72    73    1
   116    68    69    1
   117    75    73   am
   118    54    53    1
   119    54    55    1
   120    66    64    1
   121    42    40   ar
   122   156   157    1
   123    73    74    2
   124    62    61    1
   125    60    61    1
   126    41    40   ar
   127    55    56    2
   128    40    39    1
   129    61    64    1
   130    64    65    1
   131   157   158    1
   132   157   160    1
   133   158   159    2
   134    65    67    1
   135    52    51   ar
   136    52    50   ar
   137   163   161    1
   138    51    49   ar
   139   161   160    1
   140   161   162    1
   141    39    38    1
   142    50    48   ar
   143    49    48   ar
   144    38    35    1
   145    48    47    1
   146    35    36    1
   147    35    34    1
   148    47    44    1
   149    37    36    2
   150    44    43    1
   151    44    45    1
   152    46    45    2
