@<TRIPOS>MOLECULE
tmp/1x8dC00.pdb
 163 158 0 0 0
SMALL
GASTEIGER

@<TRIPOS>ATOM
      1  N         35.5730   13.3700   25.8050 N.3     6  PHE6       -0.1241
      2  CA        34.1430   13.1300   25.9350 C.3     6  PHE6        0.1605
      3  C         33.3900   14.4060   25.6130 C.2     6  PHE6        0.2264
      4  O         33.9900   15.4800   25.5250 O.2     6  PHE6       -0.2867
      5  CB        33.7880   12.6290   27.3490 C.3     6  PHE6        0.0534
      6  CG        34.4350   13.4080   28.4700 C.ar    6  PHE6       -0.0203
      7  CD1       35.7850   13.2260   28.7850 C.ar    6  PHE6       -0.0042
      8  CD2       33.6820   14.3000   29.2380 C.ar    6  PHE6       -0.0042
      9  CE1       36.3770   13.9260   29.8610 C.ar    6  PHE6       -0.0003
     10  CE2       34.2580   15.0020   30.3100 C.ar    6  PHE6       -0.0003
     11  CZ        35.6060   14.8170   30.6230 C.ar    6  PHE6       -0.0000
     12  N         29.7810   16.7490   26.4850 N.3     8  MET8       -0.1245
     13  CA        28.6800   16.9780   27.4020 C.3     8  MET8        0.1570
     14  C         27.8090   18.0840   26.8320 C.2     8  MET8        0.2261
     15  O         28.0750   18.5800   25.7390 O.2     8  MET8       -0.2867
     16  CB        29.2130   17.3850   28.7780 C.3     8  MET8        0.0387
     17  CG        30.1090   16.3170   29.4260 C.3     8  MET8        0.0595
     18  SD        30.8290   16.8200   31.0150 S.3     8  MET8       -0.1393
     19  CE        32.1390   17.8200   30.4600 C.3     8  MET8        0.0692
     20  N         28.4310   28.9650   33.0970 N.3    18  TYR18      -0.1241
     21  CA        29.1950   27.7250   33.0910 C.3    18  TYR18       0.1605
     22  C         30.6760   28.0790   33.0580 C.2    18  TYR18       0.2264
     23  O         31.4470   27.5800   33.8750 O.2    18  TYR18      -0.2867
     24  CB        28.8120   26.8460   31.8930 C.3    18  TYR18       0.0534
     25  CG        29.5820   25.5540   31.8210 C.ar   18  TYR18      -0.0201
     26  CD1       30.7980   25.4830   31.1410 C.ar   18  TYR18      -0.0009
     27  CD2       29.1160   24.4040   32.4610 C.ar   18  TYR18      -0.0009
     28  CE1       31.5360   24.3050   31.0910 C.ar   18  TYR18       0.0417
     29  CE2       29.8560   23.2090   32.4220 C.ar   18  TYR18       0.0417
     30  CZ        31.0630   23.1750   31.7340 C.ar   18  TYR18       0.1957
     31  OH        31.8070   22.0170   31.6850 O.3    18  TYR18      -0.2866
     32  N         34.1330   27.6120   36.1490 N.3    22  HIS22      -0.1241
     33  CA        35.3830   26.8870   35.9490 C.3    22  HIS22       0.1621
     34  C         36.6100   27.7750   35.9770 C.2    22  HIS22       0.2264
     35  O         37.6990   27.3210   35.6500 O.2    22  HIS22      -0.2867
     36  CB        35.3710   26.1260   34.6170 C.3    22  HIS22       0.0745
     37  CG        34.3830   25.0080   34.5730 C.ar   22  HIS22       0.0817
     38  ND1       33.0350   25.2150   34.3870 N.ar   22  HIS22      -0.2268
     39  CD2       34.5430   23.6740   34.7300 C.ar   22  HIS22       0.1154
     40  CE1       32.4030   24.0530   34.4340 C.ar   22  HIS22       0.1986
     41  NE2       33.2970   23.1020   34.6410 N.ar   22  HIS22      -0.2212
     42  N         37.5590   26.4630   39.2680 N.3    25  ILE25      -0.1245
     43  CA        36.6250   25.4770   39.7890 C.3    25  ILE25       0.1561
     44  C         36.9790   25.4780   41.2760 C.2    25  ILE25       0.2260
     45  O         37.9600   26.1060   41.6750 O.2    25  ILE25      -0.2867
     46  CB        36.8900   24.0640   39.2140 C.3    25  ILE25       0.0252
     47  CG1       38.3530   23.6720   39.4510 C.3    25  ILE25       0.0019
     48  CG2       36.5070   24.0230   37.7350 C.3    25  ILE25       0.0019
     49  CD1       38.6980   22.2530   39.0090 C.3    25  ILE25       0.0001
     50  N         38.0880   20.4810   44.4300 N.3    29  LEU29      -0.1245
     51  CA        37.8350   19.5980   43.2930 C.3    29  LEU29       0.1561
     52  C         39.1050   19.5230   42.4540 C.2    29  LEU29       0.2260
     53  O         39.4440   18.4830   41.8890 O.2    29  LEU29      -0.2867
     54  CB        36.6930   20.1280   42.4180 C.3    29  LEU29       0.0270
     55  CG        36.4750   19.2990   41.1450 C.3    29  LEU29       0.0019
     56  CD1       36.0720   17.8730   41.5370 C.3    29  LEU29       0.0001
     57  CD2       35.4050   19.9410   40.2760 C.3    29  LEU29       0.0001
     58  N         41.0990   16.2150   41.3030 N.3    33  LEU33      -0.1245
     59  CA        41.4620   15.8950   39.9260 C.3    33  LEU33       0.1561
     60  C         42.9540   15.5990   39.8120 C.2    33  LEU33       0.2260
     61  O         43.3410   14.5780   39.2500 O.2    33  LEU33      -0.2867
     62  CB        41.0720   17.0470   38.9880 C.3    33  LEU33       0.0270
     63  CG        39.5570   17.2830   38.8550 C.3    33  LEU33       0.0019
     64  CD1       39.2730   18.5360   38.0390 C.3    33  LEU33       0.0001
     65  CD2       38.9220   16.0760   38.2020 C.3    33  LEU33       0.0001
     66  N         43.5590   19.0350   31.5840 N.3    41  TYR41      -0.1241
     67  CA        42.1120   18.8990   31.4650 C.3    41  TYR41       0.1605
     68  C         41.5510   20.1670   30.8300 C.2    41  TYR41       0.2264
     69  O         41.6090   21.2310   31.4360 O.2    41  TYR41      -0.2867
     70  CB        41.5100   18.7160   32.8520 C.3    41  TYR41       0.0534
     71  CG        40.1050   18.1680   32.9090 C.ar   41  TYR41      -0.0201
     72  CD1       39.2420   18.2230   31.8100 C.ar   41  TYR41      -0.0009
     73  CD2       39.6110   17.6440   34.0990 C.ar   41  TYR41      -0.0009
     74  CE1       37.9120   17.7640   31.9120 C.ar   41  TYR41       0.0417
     75  CE2       38.3090   17.1910   34.2070 C.ar   41  TYR41       0.0417
     76  CZ        37.4570   17.2510   33.1160 C.ar   41  TYR41       0.1957
     77  OH        36.1610   16.7780   33.2610 O.3    41  TYR41      -0.2866
     78  N         38.2020   22.0060   28.4490 N.3    43  ILE43      -0.1245
     79  CA        36.8180   21.8930   28.0120 C.3    43  ILE43       0.1561
     80  C         36.5330   23.0650   27.0670 C.2    43  ILE43       0.2260
     81  O         36.8240   24.2180   27.3920 O.2    43  ILE43      -0.2867
     82  CB        35.8490   21.9290   29.2250 C.3    43  ILE43       0.0252
     83  CG1       35.9630   20.6300   30.0310 C.3    43  ILE43       0.0019
     84  CG2       34.4250   22.1250   28.7500 C.3    43  ILE43       0.0019
     85  CD1       35.1690   20.6350   31.3210 C.3    43  ILE43       0.0001
     86  N         41.0330    7.5470   37.3790 N.3    64  TRP64      -0.1241
     87  CA        40.1730    8.5610   36.7880 C.3    64  TRP64       0.1605
     88  C         38.7160    8.2340   37.0640 C.2    64  TRP64       0.2264
     89  O         37.9350    9.1140   37.4560 O.2    64  TRP64      -0.2867
     90  CB        40.3970    8.6690   35.2810 C.3    64  TRP64       0.0550
     91  CG        39.3590    9.5270   34.6060 C.ar   64  TRP64       0.0003
     92  CD1       38.3000    9.0980   33.8650 C.ar   64  TRP64       0.0946
     93  CD2       39.2600   10.9570   34.6580 C.ar   64  TRP64       0.0152
     94  NE1       37.5470   10.1670   33.4500 N.ar   64  TRP64      -0.2442
     95  CE2       38.1120   11.3220   33.9260 C.ar   64  TRP64       0.0810
     96  CE3       40.0310   11.9660   35.2590 C.ar   64  TRP64       0.0012
     97  CZ2       37.7090   12.6590   33.7750 C.ar   64  TRP64       0.0191
     98  CZ3       39.6290   13.3020   35.1110 C.ar   64  TRP64       0.0001
     99  CH2       38.4800   13.6310   34.3750 C.ar   64  TRP64       0.0015
    100  N         37.2710    9.1760   40.4730 N.3    67  VAL67      -0.1245
    101  CA        36.8580   10.5520   40.7580 C.3    67  VAL67       0.1561
    102  C         35.3530   10.6850   40.9390 C.2    67  VAL67       0.2260
    103  O         34.8860   11.3710   41.8590 O.2    67  VAL67      -0.2867
    104  CB        37.3030   11.5340   39.6340 C.3    67  VAL67       0.0252
    105  CG1       36.8080   12.9420   39.9360 C.3    67  VAL67       0.0019
    106  CG2       38.8070   11.5540   39.5250 C.3    67  VAL67       0.0019
    107  N         33.3070   15.3800   44.1130 N.3    73  CYS73      -0.1235
    108  CA        32.8010   15.3560   42.7420 C.3    73  CYS73       0.1677
    109  C         31.2790   15.2450   42.7240 C.2    73  CYS73       0.2270
    110  O         30.6150   15.8350   41.8650 O.2    73  CYS73      -0.2867
    111  CB        33.3990   14.1900   41.9510 C.3    73  CYS73       0.0956
    112  SG        32.8300   14.1690   40.2450 S.3    73  CYS73      -0.0801
    113  N         30.0430   18.5260   43.4820 N.3    76  TRP76      -0.1227
    114  CA        30.2440   19.4120   42.3290 C.3    76  TRP76       0.1737
    115  C         29.1140   19.1910   41.3170 C.2    76  TRP76       0.2595
    116  O         28.4250   20.1410   40.9040 O.2    76  TRP76      -0.2718
    117  CB        31.6020   19.1120   41.6840 C.3    76  TRP76       0.0564
    118  CG        31.8670   19.8250   40.3740 C.ar   76  TRP76       0.0003
    119  CD1       31.8980   19.2640   39.1250 C.ar   76  TRP76       0.0946
    120  CD2       32.1910   21.2160   40.1990 C.ar   76  TRP76       0.0152
    121  NE1       32.2300   20.2190   38.1900 N.ar   76  TRP76      -0.2442
    122  CE2       32.4150   21.4210   38.8200 C.ar   76  TRP76       0.0810
    123  CE3       32.3160   22.3070   41.0770 C.ar   76  TRP76       0.0012
    124  CZ2       32.7540   22.6680   38.2940 C.ar   76  TRP76       0.0191
    125  CZ3       32.6570   23.5540   40.5510 C.ar   76  TRP76       0.0001
    126  CH2       32.8710   23.7210   39.1730 C.ar   76  TRP76       0.0015
    127  N         28.9110   17.9330   40.9320 N.am   77  TRP77      -0.1976
    128  CA        27.8640   17.5880   39.9710 C.3    77  TRP77       0.1640
    129  C         26.4780   18.0580   40.4160 C.2    77  TRP77       0.2290
    130  O         25.6860   18.5350   39.5980 O.2    77  TRP77      -0.2864
    131  CB        27.8470   16.0720   39.7170 C.3    77  TRP77       0.0576
    132  CG        28.9820   15.5930   38.8560 C.ar   77  TRP77       0.0006
    133  CD1       29.8510   16.3630   38.1370 C.ar   77  TRP77       0.0946
    134  CD2       29.3580   14.2280   38.6060 C.ar   77  TRP77       0.0152
    135  NE1       30.7470   15.5640   37.4570 N.ar   77  TRP77      -0.2442
    136  CE2       30.4670   14.2520   37.7270 C.ar   77  TRP77       0.0810
    137  CE3       28.8620   12.9890   39.0350 C.ar   77  TRP77       0.0012
    138  CZ2       31.0910   13.0840   37.2720 C.ar   77  TRP77       0.0191
    139  CZ3       29.4850   11.8250   38.5800 C.ar   77  TRP77       0.0001
    140  CH2       30.5840   11.8840   37.7090 C.ar   77  TRP77       0.0015
    141  N         26.3040   21.6040   39.7090 N.3    80  MET80      -0.1245
    142  CA        26.2480   21.8920   38.2730 C.3    80  MET80       0.1570
    143  C         24.9410   21.5550   37.5420 C.2    80  MET80       0.2261
    144  O         24.7780   21.9490   36.3950 O.2    80  MET80      -0.2867
    145  CB        27.3940   21.1810   37.5350 C.3    80  MET80       0.0387
    146  CG        28.8010   21.6530   37.8700 C.3    80  MET80       0.0595
    147  SD        29.0510   23.4350   37.6980 S.3    80  MET80      -0.1393
    148  CE        29.3270   23.5990   35.9780 C.3    80  MET80       0.0692
    149  N         23.4200   22.6690   33.3100 N.3    84  MET84      -0.1245
    150  CA        23.6250   21.6910   32.2510 C.3    84  MET84       0.1570
    151  C         22.8060   20.4290   32.4650 C.2    84  MET84       0.2261
    152  O         22.4430   20.0900   33.5940 O.2    84  MET84      -0.2867
    153  CB        25.1100   21.3240   32.1480 C.3    84  MET84       0.0387
    154  CG        25.5930   20.3470   33.2230 C.3    84  MET84       0.0595
    155  SD        27.3790   20.4350   33.4890 S.3    84  MET84      -0.1393
    156  CE        27.3950   21.9660   34.2870 C.3    84  MET84       0.0692
    157  N         26.7250   14.4130   34.7760 N.3    92  PRO92      -0.2116
    158  CA        26.3660   15.1170   33.5390 C.3    92  PRO92       0.1372
    159  C         26.1330   14.1730   32.3720 C.2    92  PRO92       0.2244
    160  O         26.7970   13.1330   32.2850 O.2    92  PRO92      -0.2868
    161  CB        27.5800   16.0160   33.2980 C.3    92  PRO92       0.0268
    162  CG        28.7110   15.1580   33.7940 C.3    92  PRO92       0.0207
    163  CD        28.1430   14.6380   35.1100 C.3    92  PRO92       0.0892
@<TRIPOS>BOND
     1     4     3    2
     2     3     2    1
     3    15    14    2
     4     1     2    1
     5     2     5    1
     6    12    13    1
     7    14    13    1
     8    80    81    2
     9    80    79    1
    10     5     6    1
    11    13    16    1
    12    79    78    1
    13    79    82    1
    14     6     7   ar
    15     6     8   ar
    16    84    82    1
    17    16    17    1
    18     7     9   ar
    19    82    83    1
    20     8    10   ar
    21    17    18    1
    22     9    11   ar
    23    83    85    1
    24    10    11   ar
    25    19    18    1
    26    68    69    2
    27    68    67    1
    28    28    26   ar
    29    28    30   ar
    30    26    25   ar
    31    67    66    1
    32    67    70    1
    33    31    30    1
    34    30    29   ar
    35    72    74   ar
    36    72    71   ar
    37    25    24    1
    38    25    27   ar
    39    24    21    1
    40    74    76   ar
    41   153   150    1
    42   153   154    1
    43   150   151    1
    44   150   149    1
    45   160   159    2
    46   159   158    1
    47    29    27   ar
    48   151   152    2
    49    70    71    1
    50    71    73   ar
    51    22    21    1
    52    22    23    2
    53    21    20    1
    54    76    77    1
    55    76    75   ar
    56   154   155    1
    57   161   158    1
    58   161   162    1
    59    94    92   ar
    60    94    95   ar
    61   155   156    1
    62   158   157    1
    63    97    95   ar
    64    97    99   ar
    65   162   163    1
    66    92    91   ar
    67    95    93   ar
    68    73    75   ar
    69    99    98   ar
    70    38    40   ar
    71    38    37   ar
    72    40    41   ar
    73    37    36    1
    74    37    39   ar
    75    91    93   ar
    76    91    90    1
    77    36    33    1
    78    41    39   ar
    79    93    96   ar
    80   157   163    1
    81    98    96   ar
    82    90    87    1
    83    35    34    2
    84    33    34    1
    85    33    32    1
    86   148   147    1
    87   144   143    2
    88    87    88    1
    89    87    86    1
    90    88    89    2
    91   138   140   ar
    92   138   136   ar
    93   135   136   ar
    94   135   133   ar
    95   145   146    1
    96   145   142    1
    97   143   142    1
    98   147   146    1
    99   140   139   ar
   100   136   134   ar
   101    48    46    1
   102    64    63    1
   103   133   132   ar
   104   121   122   ar
   105   121   119   ar
   106    65    63    1
   107   142   141    1
   108   124   122   ar
   109   124   126   ar
   110   139   137   ar
   111   134   132   ar
   112   134   137   ar
   113   122   120   ar
   114    63    62    1
   115   132   131    1
   116    62    59    1
   117    49    47    1
   118   119   118   ar
   119   126   125   ar
   120    46    47    1
   121    46    43    1
   122    61    60    2
   123    42    43    1
   124   106   104    1
   125   130   129    2
   126   104   105    1
   127   104   101    1
   128   131   128    1
   129    43    44    1
   130    60    59    1
   131    59    58    1
   132   128   129    1
   133   128   127    1
   134   120   118   ar
   135   120   123   ar
   136   112   111    1
   137    57    55    1
   138   118   117    1
   139   100   101    1
   140   125   123   ar
   141   101   102    1
   142   116   115    2
   143   127   115   am
   144   102   103    2
   145    55    56    1
   146    55    54    1
   147    44    45    2
   148   115   114    1
   149   117   114    1
   150   110   109    2
   151    53    52    2
   152   111   108    1
   153   114   113    1
   154    54    51    1
   155    52    51    1
   156   109   108    1
   157   108   107    1
   158    51    50    1
