@<TRIPOS>MOLECULE
tmp/1x8iA00.pdb
 155 149 0 0 0
SMALL
GASTEIGER

@<TRIPOS>ATOM
      1  N         14.3760   47.0950   62.1880 N.3    21  VAL21      -0.1245
      2  CA        15.7440   46.5790   62.2490 C.3    21  VAL21       0.1561
      3  C         15.6010   45.0560   62.3200 C.2    21  VAL21       0.2260
      4  O         14.8680   44.5370   63.1800 O.2    21  VAL21      -0.2867
      5  CB        16.4430   47.1210   63.4560 C.3    21  VAL21       0.0252
      6  CG1       17.8340   46.4980   63.5870 C.3    21  VAL21       0.0019
      7  CG2       16.5130   48.6860   63.3320 C.3    21  VAL21       0.0019
      8  N          8.2920   41.8990   66.0570 N.3    41  TRP41      -0.1241
      9  CA         8.1420   43.3490   66.1770 C.3    41  TRP41       0.1605
     10  C          6.7230   43.8760   66.3970 C.2    41  TRP41       0.2264
     11  O          6.5340   44.7930   67.1810 O.2    41  TRP41      -0.2867
     12  CB         8.6880   44.0060   64.9030 C.3    41  TRP41       0.0550
     13  CG        10.1870   44.2500   64.8370 C.ar   41  TRP41       0.0003
     14  CD1       11.0650   43.7560   63.9090 C.ar   41  TRP41       0.0946
     15  CD2       10.9420   45.1500   65.6540 C.ar   41  TRP41       0.0152
     16  NE1       12.3290   44.2460   64.1420 N.ar   41  TRP41      -0.2442
     17  CE2       12.2820   45.1220   65.1950 C.ar   41  TRP41       0.0810
     18  CE3       10.6240   45.9850   66.7400 C.ar   41  TRP41       0.0012
     19  CZ2       13.2930   45.8980   65.7860 C.ar   41  TRP41       0.0191
     20  CZ3       11.6310   46.7330   67.3270 C.ar   41  TRP41       0.0001
     21  CH2       12.9470   46.6800   66.8490 C.ar   41  TRP41       0.0015
     22  N         11.1460   44.5340   75.6730 N.3    70  HIS70      -0.1226
     23  CA        11.2130   45.4540   74.5410 C.3    70  HIS70       0.1752
     24  C         10.3380   45.0490   73.3610 C.2    70  HIS70       0.2597
     25  O          9.8200   43.9360   73.2910 O.2    70  HIS70      -0.2718
     26  CB        12.6880   45.6090   74.0750 C.3    70  HIS70       0.0759
     27  CG        13.5090   46.4730   74.9950 C.ar   70  HIS70       0.0818
     28  ND1       14.7360   47.0010   74.6350 N.ar   70  HIS70      -0.2268
     29  CD2       13.2380   46.9600   76.2310 C.ar   70  HIS70       0.1154
     30  CE1       15.1960   47.7410   75.6260 C.ar   70  HIS70       0.1986
     31  NE2       14.2990   47.7480   76.6010 N.ar   70  HIS70      -0.2212
     32  N         10.2040   46.0050   72.4480 N.am   71  THR71      -0.1939
     33  CA         9.3390   45.9240   71.2950 C.3    71  THR71       0.2028
     34  C          9.7030   44.8120   70.3340 C.2    71  THR71       0.2642
     35  O          8.8140   44.2130   69.7260 O.2    71  THR71      -0.2714
     36  CB         9.3950   47.2830   70.5360 C.3    71  THR71       0.1808
     37  OG1       10.7320   47.8220   70.5870 O.3    71  THR71      -0.2208
     38  CG2        8.4500   48.3080   71.1790 C.3    71  THR71       0.0379
     39  N         11.0150   44.5500   70.1600 N.am   72  ASP72      -0.1971
     40  CA        11.4340   43.5070   69.2200 C.3    72  ASP72       0.1709
     41  C         11.2090   42.0760   69.7400 C.2    72  ASP72       0.2293
     42  O         11.2070   41.1220   68.9560 O.2    72  ASP72      -0.2864
     43  CB        12.8710   43.6970   68.6560 C.3    72  ASP72       0.1436
     44  CG        13.9660   43.8690   69.6920 C.2    72  ASP72       0.3671
     45  OD1       13.7360   44.1100   70.9030 O.co2  72  ASP72      -0.2456
     46  OD2       15.1660   43.8330   69.2890 O.co2  72  ASP72      -0.2456
     47  N          9.9310   52.3570   75.9740 N.3   104  ILE104     -0.1245
     48  CA        10.5940   51.6090   74.9010 C.3   104  ILE104      0.1561
     49  C          9.9050   51.8140   73.5290 C.2   104  ILE104      0.2260
     50  O         10.5660   51.8870   72.4920 O.2   104  ILE104     -0.2867
     51  CB        10.7730   50.0850   75.2810 C.3   104  ILE104      0.0252
     52  CG1       11.5900   49.3600   74.2010 C.3   104  ILE104      0.0019
     53  CG2        9.4540   49.3750   75.4530 C.3   104  ILE104      0.0019
     54  CD1       12.9960   49.9820   73.9400 C.3   104  ILE104      0.0001
     55  N         11.0820   55.1990   72.4490 N.3   107  PHE107     -0.1227
     56  CA        12.4760   55.0980   72.0520 C.3   107  PHE107      0.1736
     57  C         12.6070   54.3950   70.6730 C.2   107  PHE107      0.2596
     58  O         13.4190   54.7660   69.8320 O.2   107  PHE107     -0.2718
     59  CB        13.2850   54.3710   73.1210 C.3   107  PHE107      0.0547
     60  CG        14.7190   54.2380   72.7930 C.ar  107  PHE107     -0.0202
     61  CD1       15.6390   55.1430   73.2960 C.ar  107  PHE107     -0.0042
     62  CD2       15.1930   53.1680   72.0160 C.ar  107  PHE107     -0.0042
     63  CE1       17.0020   55.0080   72.9990 C.ar  107  PHE107     -0.0003
     64  CE2       16.5370   53.0630   71.7130 C.ar  107  PHE107     -0.0003
     65  CZ        17.4320   53.9710   72.2060 C.ar  107  PHE107     -0.0000
     66  N         11.7830   53.3720   70.4590 N.am  108  THR108     -0.1953
     67  CA        11.8250   52.5900   69.2240 C.3   108  THR108      0.1897
     68  C         11.4310   53.4930   68.0520 C.2   108  THR108      0.2313
     69  O         12.0440   53.4700   66.9680 O.2   108  THR108     -0.2863
     70  CB        10.8920   51.3850   69.3540 C.3   108  THR108      0.1794
     71  OG1       11.4400   50.4690   70.3170 O.3   108  THR108     -0.2208
     72  CG2       10.8410   50.5610   68.0700 C.3   108  THR108      0.0378
     73  N         12.6740   54.6110   64.3680 N.3   112  LEU112     -0.1245
     74  CA        11.7530   53.9690   63.4600 C.3   112  LEU112      0.1561
     75  C         10.3810   54.6350   63.5660 C.2   112  LEU112      0.2260
     76  O          9.4730   54.0860   64.1650 O.2   112  LEU112     -0.2867
     77  CB        11.6250   52.5000   63.8590 C.3   112  LEU112      0.0270
     78  CG        12.9240   51.6840   63.8320 C.3   112  LEU112      0.0019
     79  CD1       12.8020   50.4200   64.6790 C.3   112  LEU112      0.0001
     80  CD2       13.4040   51.3440   62.3930 C.3   112  LEU112      0.0001
     81  N         22.1740   43.5150   78.0260 N.3   147  HIS147     -0.1241
     82  CA        21.5900   44.5070   77.1110 C.3   147  HIS147      0.1621
     83  C         20.3810   45.2340   77.7440 C.2   147  HIS147      0.2264
     84  O         20.2040   46.4110   77.5350 O.2   147  HIS147     -0.2867
     85  CB        21.2560   43.8360   75.7620 C.3   147  HIS147      0.0745
     86  CG        20.3590   44.6470   74.8750 C.ar  147  HIS147      0.0817
     87  ND1       18.9970   44.4230   74.8000 N.ar  147  HIS147     -0.2268
     88  CD2       20.6220   45.6680   74.0210 C.ar  147  HIS147      0.1154
     89  CE1       18.4660   45.2750   73.9360 C.ar  147  HIS147      0.1986
     90  NE2       19.4250   46.0670   73.4770 N.ar  147  HIS147     -0.2212
     91  N         18.3570   39.6000   72.2480 N.3   166  CYS166     -0.1235
     92  CA        19.2220   40.7810   71.9980 C.3   166  CYS166      0.1677
     93  C         20.6330   40.7380   72.6340 C.2   166  CYS166      0.2270
     94  O         21.4420   41.6050   72.3470 O.2   166  CYS166     -0.2867
     95  CB        18.5210   42.0580   72.4400 C.3   166  CYS166      0.0956
     96  SG        16.8950   42.2850   71.6700 S.3   166  CYS166     -0.0801
     97  N         24.8760   38.7940   69.2650 N.3   169  LYS169     -0.1245
     98  CA        24.7320   39.3970   67.9340 C.3   169  LYS169      0.1561
     99  C         26.1500   39.8000   67.4450 C.2   169  LYS169      0.2260
    100  O         27.1090   39.6510   68.1980 O.2   169  LYS169     -0.2867
    101  CB        23.7630   40.5920   67.9680 C.3   169  LYS169      0.0271
    102  CG        24.1180   41.6460   69.0210 C.3   169  LYS169      0.0035
    103  CD        22.9670   42.5120   69.4230 C.3   169  LYS169      0.0206
    104  CE        23.3730   43.4490   70.5560 C.3   169  LYS169      0.1093
    105  NZ        22.2380   44.0150   71.3850 N.3   169  LYS169     -0.1314
    106  N         27.1480   42.9190   65.8490 N.3   171  LYS171     -0.1245
    107  CA        27.5160   44.2900   66.0360 C.3   171  LYS171      0.1561
    108  C         27.1220   44.7190   67.4600 C.2   171  LYS171      0.2260
    109  O         26.0960   44.2970   68.0250 O.2   171  LYS171     -0.2867
    110  CB        26.8030   45.1820   65.0080 C.3   171  LYS171      0.0271
    111  CG        27.2070   44.9530   63.5230 C.3   171  LYS171      0.0035
    112  CD        26.5870   46.0510   62.6170 C.3   171  LYS171      0.0206
    113  CE        26.7270   45.7190   61.1310 C.3   171  LYS171      0.1093
    114  NZ        25.5870   46.2550   60.3330 N.3   171  LYS171     -0.1314
    115  N         25.4900   47.2000   68.7650 N.3   173  GLY173     -0.1210
    116  CA        24.0520   47.4520   68.8340 C.3   173  GLY173      0.1956
    117  C         23.7900   48.5840   69.8070 C.2   173  GLY173      0.2611
    118  O         24.6780   49.4140   70.0820 O.2   173  GLY173     -0.2717
    119  N         22.5870   48.6170   70.3600 N.am  174  ASN174     -0.1974
    120  CA        22.1680   49.7680   71.1220 C.3   174  ASN174      0.1688
    121  C         22.3060   49.5170   72.6040 C.2   174  ASN174      0.2292
    122  O         21.6600   48.6030   73.1120 O.2   174  ASN174     -0.2864
    123  CB        20.7270   50.1290   70.7940 C.3   174  ASN174      0.1181
    124  CG        20.4190   51.5180   71.1670 C.2   174  ASN174      0.2629
    125  OD1       20.4580   51.8840   72.3540 O.2   174  ASN174     -0.2716
    126  ND2       20.1330   52.3440   70.1630 N.am  174  ASN174     -0.0877
    127  N         19.9470   50.8970   77.2400 N.3   177  PHE177     -0.1241
    128  CA        19.3270   50.2130   78.3920 C.3   177  PHE177      0.1605
    129  C         20.2760   49.2200   79.1110 C.2   177  PHE177      0.2264
    130  O         19.8780   48.5610   80.0550 O.2   177  PHE177     -0.2867
    131  CB        18.0680   49.4590   77.9390 C.3   177  PHE177      0.0534
    132  CG        17.0540   50.3480   77.3020 C.ar  177  PHE177     -0.0203
    133  CD1       16.0620   50.9500   78.0540 C.ar  177  PHE177     -0.0042
    134  CD2       17.1890   50.7000   75.9570 C.ar  177  PHE177     -0.0042
    135  CE1       15.1410   51.8670   77.4580 C.ar  177  PHE177     -0.0003
    136  CE2       16.2980   51.5930   75.3660 C.ar  177  PHE177     -0.0003
    137  CZ        15.2590   52.1610   76.1120 C.ar  177  PHE177     -0.0000
    138  N         20.1470   39.6810   66.3600 N.3   204  HIS204     -0.1226
    139  CA        20.2210   40.6760   65.2620 C.3   204  HIS204      0.1752
    140  C         21.4140   40.2240   64.3790 C.2   204  HIS204      0.2596
    141  O         22.1680   39.3350   64.7800 O.2   204  HIS204     -0.2718
    142  CB        20.4460   42.1570   65.7460 C.3   204  HIS204      0.0759
    143  CG        19.3130   42.6710   66.5660 C.ar  204  HIS204      0.0818
    144  ND1       18.0260   42.7640   66.0670 N.ar  204  HIS204     -0.2268
    145  CD2       19.2430   43.0570   67.8630 C.ar  204  HIS204      0.1154
    146  CE1       17.2010   43.1360   67.0350 C.ar  204  HIS204      0.1986
    147  NE2       17.9070   43.3190   68.1350 N.ar  204  HIS204     -0.2212
    148  N         21.5720   40.8530   63.2230 N.am  205  ASP205     -0.1974
    149  CA        22.6000   40.5070   62.2330 C.3   205  ASP205      0.1709
    150  C         22.3730   39.0820   61.7360 C.2   205  ASP205      0.2293
    151  O         21.2410   38.5760   61.8580 O.2   205  ASP205     -0.2864
    152  CB        24.0110   40.7370   62.8010 C.3   205  ASP205      0.1436
    153  CG        24.1180   42.0410   63.5870 C.2   205  ASP205      0.3671
    154  OD1       23.8530   43.0900   62.9750 O.co2 205  ASP205     -0.2456
    155  OD2       24.4310   42.1230   64.8140 O.co2 205  ASP205     -0.2456
@<TRIPOS>BOND
     1   114   113    1
     2   113   112    1
     3   150   151    2
     4   150   149    1
     5     1     2    1
     6   149   152    1
     7   149   148    1
     8     2     3    1
     9     2     5    1
    10     3     4    2
    11    80    78    1
    12   112   111    1
    13   152   153    1
    14   154   153   ar
    15   148   140   am
    16     7     5    1
    17     5     6    1
    18    74    75    1
    19    74    77    1
    20    74    73    1
    21   111   110    1
    22    75    76    2
    23   153   155   ar
    24    78    77    1
    25    78    79    1
    26    14    16   ar
    27    14    13   ar
    28    16    17   ar
    29   140   141    2
    30   140   139    1
    31    13    12    1
    32    13    15   ar
    33    12     9    1
    34   110   107    1
    35    17    15   ar
    36    17    19   ar
    37   139   142    1
    38   139   138    1
    39    15    18   ar
    40   142   143    1
    41    19    21   ar
    42   106   107    1
    43   107   108    1
    44     8     9    1
    45   144   143   ar
    46   144   146   ar
    47     9    10    1
    48    10    11    2
    49   143   145   ar
    50    18    20   ar
    51    21    20   ar
    52    69    68    2
    53   146   147   ar
    54    99    98    1
    55    99   100    2
    56   108   109    2
    57   145   147   ar
    58    98   101    1
    59    98    97    1
    60   101   102    1
    61    68    67    1
    62    72    70    1
    63    43    40    1
    64    43    44    1
    65   115   116    1
    66   116   117    1
    67    42    41    2
    68   102   103    1
    69    40    41    1
    70    40    39    1
    71    67    70    1
    72    67    66    1
    73    46    44   ar
    74    70    71    1
    75   103   104    1
    76    44    45   ar
    77    35    34    2
    78   117   118    2
    79   117   119   am
    80    58    57    2
    81    39    34   am
    82   126   124   am
    83    34    33    1
    84   119   120    1
    85    66    57   am
    86    36    37    1
    87    36    38    1
    88    36    33    1
    89   104   105    1
    90    57    56    1
    91   123   120    1
    92   123   124    1
    93   120   121    1
    94   124   125    2
    95    33    32    1
    96    96    95    1
    97    64    62   ar
    98    64    65   ar
    99    92    91    1
   100    92    95    1
   101    92    93    1
   102    62    60   ar
   103    56    55    1
   104    56    59    1
   105    65    63   ar
   106    94    93    2
   107    32    24   am
   108    50    49    2
   109   121   122    2
   110    60    59    1
   111    60    61   ar
   112    63    61   ar
   113    25    24    2
   114    24    23    1
   115    90    89   ar
   116    90    88   ar
   117    49    48    1
   118    89    87   ar
   119    54    52    1
   120    88    86   ar
   121    26    23    1
   122    26    27    1
   123    52    51    1
   124    23    22    1
   125    28    27   ar
   126    28    30   ar
   127    87    86   ar
   128    86    85    1
   129    48    51    1
   130    48    47    1
   131    27    29   ar
   132    51    53    1
   133   136   134   ar
   134   136   137   ar
   135    30    31   ar
   136    85    82    1
   137   134   132   ar
   138   137   135   ar
   139    29    31   ar
   140    82    83    1
   141    82    81    1
   142   127   128    1
   143   132   131    1
   144   132   133   ar
   145   135   133   ar
   146    84    83    2
   147   131   128    1
   148   128   129    1
   149   129   130    2
