@<TRIPOS>MOLECULE
tmp/1x8jA00.pdb
 189 183 0 0 0
SMALL
GASTEIGER

@<TRIPOS>ATOM
      1  N         10.5550   -2.3320   32.7500 N.3    66  GLN66      -0.1231
      2  CA        11.1600   -1.7540   33.9540 C.3    66  GLN66       0.1698
      3  C         11.2330   -0.2290   34.0460 C.2    66  GLN66       0.2592
      4  O         11.4060    0.4660   33.0440 O.2    66  GLN66      -0.2718
      5  CB        12.5650   -2.3370   34.1620 C.3    66  GLN66       0.0381
      6  CG        13.5480   -2.0140   33.0510 C.3    66  GLN66       0.0905
      7  CD        14.9860   -2.2210   33.4890 C.2    66  GLN66       0.2608
      8  OE1       15.3900   -3.3350   33.8100 O.2    66  GLN66      -0.2717
      9  NE2       15.7650   -1.1430   33.5160 N.am   66  GLN66      -0.0878
     10  N         11.1020    0.2700   35.2760 N.am   67  ARG67      -0.1966
     11  CA        11.1650    1.7010   35.5910 C.3    67  ARG67       0.1729
     12  C          9.9920    2.4940   35.0220 C.2    67  ARG67       0.2617
     13  O         10.1350    3.6610   34.6500 O.2    67  ARG67      -0.2715
     14  CB        12.4960    2.2920   35.0930 C.3    67  ARG67       0.0348
     15  CG        13.7040    1.4130   35.3910 C.3    67  ARG67       0.0492
     16  CD        13.7910    1.1370   36.8740 C.3    67  ARG67       0.2205
     17  NE        14.0710    2.3590   37.6120 N.pl3  67  ARG67      -0.0865
     18  CZ        13.9270    2.4820   38.9270 C.cat  67  ARG67       0.5346
     19  NH1       13.4950    1.4550   39.6470 N.pl3  67  ARG67       0.1354
     20  NH2       14.2350    3.6230   39.5250 N.pl3  67  ARG67       0.1354
     21  N          8.8270    1.8590   34.9610 N.am   68  SER68      -0.1936
     22  CA         7.6440    2.5160   34.4200 C.3    68  SER68       0.2055
     23  C          6.5480    2.7260   35.4520 C.2    68  SER68       0.2644
     24  O          5.4420    3.1320   35.0970 O.2    68  SER68      -0.2714
     25  CB         7.0690    1.7080   33.2580 C.3    68  SER68       0.2130
     26  OG         8.0200    1.5360   32.2280 O.3    68  SER68      -0.2179
     27  N          6.8410    2.4340   36.7170 N.am   69  GLY69      -0.1939
     28  CA         5.8410    2.6160   37.7530 C.3    69  GLY69       0.2014
     29  C          5.3920    1.3240   38.4020 C.2    69  GLY69       0.2640
     30  O          4.3640    1.2860   39.0870 O.2    69  GLY69      -0.2714
     31  N          6.1750    0.2670   38.2030 N.am   70  THR70      -0.1936
     32  CA         5.8660   -1.0480   38.7690 C.3    70  THR70       0.2028
     33  C          5.6690   -1.0270   40.2850 C.2    70  THR70       0.2643
     34  O          4.6060   -1.4030   40.7800 O.2    70  THR70      -0.2714
     35  CB         6.9870   -2.0740   38.4880 C.3    70  THR70       0.1808
     36  OG1        7.3750   -2.0110   37.1090 O.3    70  THR70      -0.2208
     37  CG2        6.4980   -3.4790   38.8150 C.3    70  THR70       0.0379
     38  N          6.7060   -0.6030   41.0100 N.am   71  THR71      -0.1936
     39  CA         6.6840   -0.5570   42.4740 C.3    71  THR71       0.2028
     40  C          5.4630    0.1500   43.0630 C.2    71  THR71       0.2642
     41  O          4.8250   -0.3780   43.9750 O.2    71  THR71      -0.2714
     42  CB         7.9700    0.1000   43.0210 C.3    71  THR71       0.1808
     43  OG1        9.1100   -0.4840   42.3760 O.3    71  THR71      -0.2208
     44  CG2        8.1000   -0.1410   44.5210 C.3    71  THR71       0.0379
     45  N          5.1460    1.3390   42.5550 N.am   72  MET72      -0.1976
     46  CA         3.9740    2.0910   43.0160 C.3    72  MET72       0.1605
     47  C          2.7300    1.2380   42.8510 C.2    72  MET72       0.2287
     48  O          1.9220    1.0890   43.7650 O.2    72  MET72      -0.2864
     49  CB         3.7330    3.3300   42.1590 C.3    72  MET72       0.0413
     50  CG         4.8590    4.2940   42.0560 C.3    72  MET72       0.0598
     51  SD         4.3840    5.6110   40.9450 S.3    72  MET72      -0.1393
     52  CE         3.1770    6.4720   41.9990 C.3    72  MET72       0.0692
     53  N          8.6010   -8.2160   34.1870 N.3   158  HIS158     -0.1241
     54  CA         8.9490   -7.2490   33.1560 C.3   158  HIS158      0.1621
     55  C          8.9610   -7.9990   31.8150 C.2   158  HIS158      0.2264
     56  O          9.4210   -7.4870   30.7940 O.2   158  HIS158     -0.2867
     57  CB        10.3130   -6.6220   33.4490 C.3   158  HIS158      0.0745
     58  CG        10.3080   -5.7180   34.6430 C.ar  158  HIS158      0.0817
     59  ND1        9.3820   -4.7090   34.8080 N.ar  158  HIS158     -0.2268
     60  CD2       11.0830   -5.7000   35.7530 C.ar  158  HIS158      0.1154
     61  CE1        9.5840   -4.1130   35.9700 C.ar  158  HIS158      0.1986
     62  NE2       10.6110   -4.6950   36.5630 N.ar  158  HIS158     -0.2212
     63  N          5.3280    4.0000   30.3740 N.3   179  ARG179     -0.1245
     64  CA         5.8500    5.3320   30.6590 C.3   179  ARG179      0.1563
     65  C          6.5960    5.8550   29.4180 C.2   179  ARG179      0.2260
     66  O          7.0150    5.0700   28.5650 O.2   179  ARG179     -0.2867
     67  CB         6.8030    5.2350   31.8550 C.3   179  ARG179      0.0307
     68  CG         7.3960    6.5430   32.3300 C.3   179  ARG179      0.0489
     69  CD         8.4240    6.3020   33.4470 C.3   179  ARG179      0.2205
     70  NE         8.7780    7.5470   34.1270 N.pl3 179  ARG179     -0.0865
     71  CZ         9.7260    7.6620   35.0530 C.cat 179  ARG179      0.5346
     72  NH1       10.4400    6.6010   35.4190 N.pl3 179  ARG179      0.1354
     73  NH2        9.9490    8.8390   35.6260 N.pl3 179  ARG179      0.1354
     74  N         11.9550    8.9240   29.4630 N.3   183  ASP183     -0.1239
     75  CA        12.1230    8.9830   30.9140 C.3   183  ASP183      0.1674
     76  C         12.5020    7.5990   31.4280 C.2   183  ASP183      0.2266
     77  O         13.2930    7.4690   32.3660 O.2   183  ASP183     -0.2867
     78  CB        10.8500    9.4870   31.6030 C.3   183  ASP183      0.1410
     79  CG        10.6430   10.9850   31.4130 C.2   183  ASP183      0.3668
     80  OD1       11.6490   11.7240   31.4520 O.co2 183  ASP183     -0.2456
     81  OD2        9.4830   11.4270   31.2360 O.co2 183  ASP183     -0.2456
     82  N         15.7360    6.6400   33.8080 N.3   187  SER187     -0.1217
     83  CA        15.5660    5.8560   35.0270 C.3   187  SER187      0.1889
     84  C         16.3280    4.5170   34.9420 C.2   187  SER187      0.2288
     85  O         16.9410    4.0820   35.9190 O.2   187  SER187     -0.2866
     86  CB        14.0770    5.5960   35.2910 C.3   187  SER187      0.2089
     87  OG        13.8820    4.9700   36.5490 O.3   187  SER187     -0.2183
     88  N          2.3110    5.7480   33.5350 N.3   242  TYR242     -0.1241
     89  CA         2.9830    6.2600   34.7190 C.3   242  TYR242      0.1605
     90  C          2.6640    7.7430   34.9030 C.2   242  TYR242      0.2264
     91  O          2.4210    8.1930   36.0150 O.2   242  TYR242     -0.2867
     92  CB         4.4920    6.0740   34.5810 C.3   242  TYR242      0.0534
     93  CG         5.2940    6.7950   35.6390 C.ar  242  TYR242     -0.0201
     94  CD1        5.4240    6.2760   36.9260 C.ar  242  TYR242     -0.0009
     95  CD2        5.8930    8.0170   35.3620 C.ar  242  TYR242     -0.0009
     96  CE1        6.1330    6.9630   37.9110 C.ar  242  TYR242      0.0417
     97  CE2        6.5970    8.7080   36.3380 C.ar  242  TYR242      0.0417
     98  CZ         6.7120    8.1780   37.6100 C.ar  242  TYR242      0.1957
     99  OH         7.4000    8.8840   38.5800 O.3   242  TYR242     -0.2866
    100  N          0.9930   10.8590   38.2350 N.3   246  LEU246     -0.1245
    101  CA         1.4260   12.1900   38.6380 C.3   246  LEU246      0.1561
    102  C          0.3360   13.2360   38.4300 C.2   246  LEU246      0.2260
    103  O          0.0860   14.0660   39.3040 O.2   246  LEU246     -0.2867
    104  CB         2.6820   12.5930   37.8610 C.3   246  LEU246      0.0270
    105  CG         3.9050   11.6780   38.0280 C.3   246  LEU246      0.0019
    106  CD1        5.0080   12.1240   37.0870 C.3   246  LEU246      0.0001
    107  CD2        4.3950   11.7100   39.4750 C.3   246  LEU246      0.0001
    108  N          1.0780    6.9770   48.9370 N.3   276  LEU276     -0.1245
    109  CA         1.9460    6.9150   47.7710 C.3   276  LEU276      0.1561
    110  C          2.7130    8.2020   47.4860 C.2   276  LEU276      0.2260
    111  O          3.3160    8.3480   46.4210 O.2   276  LEU276     -0.2867
    112  CB         1.1360    6.5010   46.5380 C.3   276  LEU276      0.0270
    113  CG         1.1770    5.0070   46.1900 C.3   276  LEU276      0.0019
    114  CD1        2.5650    4.6580   45.6590 C.3   276  LEU276      0.0001
    115  CD2        0.8360    4.1660   47.4150 C.3   276  LEU276      0.0001
    116  N          5.5000   10.6180   47.0220 N.3   278  PHE278     -0.1241
    117  CA         6.8910   10.3070   46.6920 C.3   278  PHE278      0.1605
    118  C          7.9040   10.3270   47.8460 C.2   278  PHE278      0.2264
    119  O          8.6440    9.3600   48.0400 O.2   278  PHE278     -0.2867
    120  CB         7.4100   11.2130   45.5700 C.3   278  PHE278      0.0534
    121  CG         8.7560   10.7880   45.0370 C.ar  278  PHE278     -0.0203
    122  CD1        8.8710    9.6510   44.2360 C.ar  278  PHE278     -0.0042
    123  CD2        9.9150   11.4750   45.3950 C.ar  278  PHE278     -0.0042
    124  CE1       10.1170    9.1980   43.8050 C.ar  278  PHE278     -0.0003
    125  CE2       11.1720   11.0310   44.9680 C.ar  278  PHE278     -0.0003
    126  CZ        11.2730    9.8870   44.1710 C.ar  278  PHE278     -0.0000
    127  N          7.0130    7.5600   50.2840 N.3   281  PHE281     -0.1241
    128  CA         7.2700    6.2610   49.6710 C.3   281  PHE281      0.1605
    129  C          8.7760    5.9990   49.5480 C.2   281  PHE281      0.2264
    130  O          9.2510    4.9000   49.8500 O.2   281  PHE281     -0.2867
    131  CB         6.6150    6.2120   48.2890 C.3   281  PHE281      0.0534
    132  CG         6.3170    4.8280   47.8050 C.ar  281  PHE281     -0.0203
    133  CD1        5.4850    3.9830   48.5390 C.ar  281  PHE281     -0.0042
    134  CD2        6.8420    4.3720   46.5990 C.ar  281  PHE281     -0.0042
    135  CE1        5.1770    2.7060   48.0800 C.ar  281  PHE281     -0.0003
    136  CE2        6.5410    3.0950   46.1320 C.ar  281  PHE281     -0.0003
    137  CZ         5.7050    2.2590   46.8750 C.ar  281  PHE281     -0.0000
    138  N         16.4480    3.1590   44.4720 N.3   304  PHE304     -0.1227
    139  CA        15.4170    2.5440   43.6460 C.3   304  PHE304      0.1736
    140  C         14.3460    3.5760   43.3580 C.2   304  PHE304      0.2595
    141  O         13.8870    3.6940   42.2290 O.2   304  PHE304     -0.2718
    142  CB        14.7870    1.3400   44.3380 C.3   304  PHE304      0.0547
    143  CG        15.5980    0.0870   44.2250 C.ar  304  PHE304     -0.0202
    144  CD1       16.5990   -0.2030   45.1560 C.ar  304  PHE304     -0.0042
    145  CD2       15.3480   -0.8260   43.1960 C.ar  304  PHE304     -0.0042
    146  CE1       17.3460   -1.3920   45.0740 C.ar  304  PHE304     -0.0003
    147  CE2       16.0850   -2.0180   43.1020 C.ar  304  PHE304     -0.0003
    148  CZ        17.0880   -2.3010   44.0480 C.ar  304  PHE304     -0.0000
    149  N         13.9540    4.3150   44.3930 N.am  305  ILE305     -0.1966
    150  CA        12.9520    5.3750   44.2750 C.3   305  ILE305      0.1727
    151  C         13.7930    6.6470   44.1780 C.2   305  ILE305      0.2616
    152  O         14.3250    7.1190   45.1800 O.2   305  ILE305     -0.2715
    153  CB        12.0590    5.3810   45.5200 C.3   305  ILE305      0.0290
    154  CG1       11.3950    4.0020   45.6570 C.3   305  ILE305      0.0022
    155  CG2       11.0110    6.4650   45.4170 C.3   305  ILE305      0.0023
    156  CD1       10.6320    3.7840   46.9540 C.3   305  ILE305      0.0001
    157  N         13.9100    7.1840   42.9640 N.am  306  ARG306     -0.1963
    158  CA        14.7610    8.3430   42.6780 C.3   306  ARG306      0.1729
    159  C         14.2040    9.7680   42.7440 C.2   306  ARG306      0.2616
    160  O         14.2410   10.4100   43.7930 O.2   306  ARG306     -0.2715
    161  CB        15.4080    8.1180   41.3060 C.3   306  ARG306      0.0348
    162  CG        16.7200    8.8420   41.0670 C.3   306  ARG306      0.0492
    163  CD        17.3810    8.2740   39.8290 C.3   306  ARG306      0.2205
    164  NE        16.4860    8.3640   38.6730 N.pl3 306  ARG306     -0.0865
    165  CZ        16.3000    9.4670   37.9510 C.cat 306  ARG306      0.5346
    166  NH1       16.9530   10.5810   38.2620 N.pl3 306  ARG306      0.1354
    167  NH2       15.4600    9.4600   36.9250 N.pl3 306  ARG306      0.1354
    168  N         13.7230   10.2610   41.6080 N.am  307  LYS307     -0.1963
    169  CA        13.1860   11.6130   41.4880 C.3   307  LYS307      0.1728
    170  C         11.6570   11.6320   41.4200 C.2   307  LYS307      0.2617
    171  O         11.0230   12.5640   41.9160 O.2   307  LYS307     -0.2715
    172  CB        13.7630   12.2730   40.2340 C.3   307  LYS307      0.0311
    173  CG        14.7660   13.3950   40.4780 C.3   307  LYS307      0.0038
    174  CD        14.0680   14.7400   40.6790 C.3   307  LYS307      0.0206
    175  CE        15.0060   15.9150   40.3940 C.3   307  LYS307      0.1093
    176  NZ        16.2490   15.9100   41.2340 N.3   307  LYS307     -0.1314
    177  N         11.0740   10.6140   40.7890 N.am  308  GLY308     -0.1940
    178  CA         9.6270   10.5180   40.6890 C.3   308  GLY308      0.2014
    179  C          8.9490   11.6260   39.9020 C.2   308  GLY308      0.2638
    180  O          7.8480   12.0510   40.2450 O.2   308  GLY308     -0.2714
    181  N          9.6030   12.0790   38.8360 N.am  309  LYS309     -0.1977
    182  CA         9.0780   13.1500   38.0010 C.3   309  LYS309      0.1596
    183  C          8.9030   12.7080   36.5510 C.2   309  LYS309      0.2287
    184  O          9.4380   11.6830   36.1320 O.2   309  LYS309     -0.2864
    185  CB        10.0280   14.3470   38.0350 C.3   309  LYS309      0.0298
    186  CG        10.2940   14.9240   39.4180 C.3   309  LYS309      0.0038
    187  CD         9.0500   15.5650   40.0240 C.3   309  LYS309      0.0206
    188  CE         9.3760   16.2620   41.3490 C.3   309  LYS309      0.1093
    189  NZ         8.1910   16.9540   41.9360 N.3   309  LYS309     -0.1314
@<TRIPOS>BOND
     1    66    65    2
     2    65    64    1
     3    74    75    1
     4    63    64    1
     5    64    67    1
     6    56    55    2
     7    75    76    1
     8    75    78    1
     9    81    79   ar
    10    79    80   ar
    11    79    78    1
    12    76    77    2
    13    55    54    1
    14    67    68    1
    15    26    25    1
    16    68    69    1
    17     1     2    1
    18     4     3    2
    19     6     7    1
    20     6     5    1
    21    54    57    1
    22    54    53    1
    23    25    22    1
    24    69    70    1
    25    57    58    1
    26     7     9   am
    27     7     8    2
    28    88    89    1
    29    82    83    1
    30     2     3    1
    31     2     5    1
    32     3    10   am
    33    70    71    2
    34    22    21    1
    35    22    23    1
    36    92    89    1
    37    92    93    1
    38    58    59   ar
    39    58    60   ar
    40    13    12    2
    41    89    90    1
    42    59    61   ar
    43    90    91    2
    44    84    83    1
    45    84    85    2
    46    21    12   am
    47    12    11    1
    48    83    86    1
    49    71    72    1
    50    71    73    1
    51    14    15    1
    52    14    11    1
    53    24    23    2
    54    10    11    1
    55    86    87    1
    56    95    93   ar
    57    95    97   ar
    58    15    16    1
    59    23    27   am
    60    93    94   ar
    61    60    62   ar
    62    61    62   ar
    63   184   183    2
    64    97    98   ar
    65   183   182    1
    66    27    28    1
    67    16    17    1
    68   167   165    1
    69    94    96   ar
    70   106   105    1
    71    36    35    1
    72    98    96   ar
    73    98    99    1
    74    17    18    2
    75    28    29    1
    76   104   105    1
    77   104   101    1
    78   165   166    1
    79   165   164    2
    80   182   185    1
    81   182   181    1
    82   105   107    1
    83   185   186    1
    84    31    29   am
    85    31    32    1
    86   100   101    1
    87    29    30    2
    88   102   101    1
    89   102   103    2
    90    35    32    1
    91    35    37    1
    92   164   163    1
    93    32    33    1
    94   181   179   am
    95    18    20    1
    96    18    19    1
    97   186   187    1
    98   163   162    1
    99   179   180    2
   100   179   178    1
   101   187   188    1
   102   172   173    1
   103   172   169    1
   104    33    34    2
   105    33    38   am
   106   175   174    1
   107   175   176    1
   108   173   174    1
   109   178   177    1
   110   177   170   am
   111    51    52    1
   112    51    50    1
   113    38    39    1
   114   162   161    1
   115   161   158    1
   116   188   189    1
   117   170   169    1
   118   170   171    2
   119   169   168    1
   120   168   159   am
   121    50    49    1
   122    49    46    1
   123   141   140    2
   124    43    42    1
   125    39    42    1
   126    39    40    1
   127    45    46    1
   128    45    40   am
   129   158   159    1
   130   158   157    1
   131   159   160    2
   132    47    46    1
   133    47    48    2
   134   157   151   am
   135    42    44    1
   136    40    41    2
   137   147   145   ar
   138   147   148   ar
   139   145   143   ar
   140   140   139    1
   141   140   149   am
   142   139   142    1
   143   139   138    1
   144   124   126   ar
   145   124   122   ar
   146   148   146   ar
   147   126   125   ar
   148   151   150    1
   149   151   152    2
   150   143   142    1
   151   143   144   ar
   152   122   121   ar
   153   150   149    1
   154   150   153    1
   155   125   123   ar
   156   121   123   ar
   157   121   120    1
   158   146   144   ar
   159   155   153    1
   160   153   154    1
   161   120   117    1
   162   154   156    1
   163   114   113    1
   164   136   134   ar
   165   136   137   ar
   166   113   112    1
   167   113   115    1
   168   111   110    2
   169   112   109    1
   170   134   132   ar
   171   117   116    1
   172   117   118    1
   173   137   135   ar
   174   110   109    1
   175   109   108    1
   176   132   131    1
   177   132   133   ar
   178   118   119    2
   179   135   133   ar
   180   131   128    1
   181   129   128    1
   182   129   130    2
   183   128   127    1
