@<TRIPOS>MOLECULE
tmp/1x8jA01.pdb
 201 192 0 0 0
SMALL
GASTEIGER

@<TRIPOS>ATOM
      1  N         29.7700   -6.5030   33.5590 N.3    25  PHE25      -0.1241
      2  CA        28.8190   -7.3150   34.2900 C.3    25  PHE25       0.1605
      3  C         28.9330   -8.7510   33.7550 C.2    25  PHE25       0.2264
      4  O         28.9500   -8.9750   32.5430 O.2    25  PHE25      -0.2867
      5  CB        27.3960   -6.7830   34.1170 C.3    25  PHE25       0.0534
      6  CG        26.4220   -7.3840   35.0790 C.ar   25  PHE25      -0.0203
      7  CD1       26.5630   -7.1720   36.4470 C.ar   25  PHE25      -0.0042
      8  CD2       25.3990   -8.2130   34.6300 C.ar   25  PHE25      -0.0042
      9  CE1       25.6990   -7.7830   37.3580 C.ar   25  PHE25      -0.0003
     10  CE2       24.5310   -8.8270   35.5340 C.ar   25  PHE25      -0.0003
     11  CZ        24.6820   -8.6120   36.8990 C.ar   25  PHE25      -0.0000
     12  N          9.2540   -7.4770   48.3490 N.3    94  SER94      -0.1217
     13  CA         9.8580   -8.6740   47.7690 C.3    94  SER94       0.1889
     14  C          9.3030   -9.9620   48.3900 C.2    94  SER94       0.2288
     15  O          9.4070  -11.0370   47.8060 O.2    94  SER94      -0.2866
     16  CB        11.3730   -8.6250   47.9380 C.3    94  SER94       0.2089
     17  OG        11.7230   -8.7190   49.3070 O.3    94  SER94      -0.2183
     18  N          8.8710  -12.0670   42.0130 N.3    99  TYR99      -0.1241
     19  CA         9.4680  -11.4180   40.8620 C.3    99  TYR99       0.1605
     20  C          9.7210  -12.5300   39.8430 C.2    99  TYR99       0.2264
     21  O         10.8080  -13.1050   39.7870 O.2    99  TYR99      -0.2867
     22  CB        10.7740  -10.7530   41.3000 C.3    99  TYR99       0.0534
     23  CG        11.4060   -9.8330   40.2910 C.ar   99  TYR99      -0.0201
     24  CD1       12.5490   -9.1160   40.6180 C.ar   99  TYR99      -0.0009
     25  CD2       10.8920   -9.7050   39.0010 C.ar   99  TYR99      -0.0009
     26  CE1       13.1700   -8.3000   39.6960 C.ar   99  TYR99       0.0417
     27  CE2       11.5120   -8.8890   38.0630 C.ar   99  TYR99       0.0417
     28  CZ        12.6550   -8.1920   38.4190 C.ar   99  TYR99       0.1957
     29  OH        13.3220   -7.4120   37.4980 O.3    99  TYR99      -0.2866
     30  N         12.8990  -11.9960   37.8660 N.3   102  GLY102     -0.1225
     31  CA        14.0310  -11.4280   38.5770 C.3   102  GLY102      0.1811
     32  C         15.2900  -12.2780   38.5730 C.2   102  GLY102      0.2280
     33  O         16.3990  -11.7440   38.6080 O.2   102  GLY102     -0.2866
     34  N         18.9160  -12.3900   35.8440 N.3   105  ILE105     -0.1231
     35  CA        20.0840  -11.5190   35.8620 C.3   105  ILE105      0.1692
     36  C         21.2880  -12.1550   36.5500 C.2   105  ILE105      0.2592
     37  O         22.4040  -11.6410   36.4810 O.2   105  ILE105     -0.2718
     38  CB        19.7330  -10.1720   36.5500 C.3   105  ILE105      0.0266
     39  CG1       20.8510   -9.1500   36.3240 C.3   105  ILE105      0.0019
     40  CG2       19.4800  -10.3980   38.0430 C.3   105  ILE105      0.0020
     41  CD1       20.4320   -7.7250   36.6700 C.3   105  ILE105      0.0001
     42  N         21.0560  -13.2820   37.2090 N.am  106  TYR106     -0.1976
     43  CA        22.1220  -13.9790   37.9160 C.3   106  TYR106      0.1639
     44  C         22.4640  -15.3420   37.3160 C.2   106  TYR106      0.2290
     45  O         21.5790  -16.1710   37.0810 O.2   106  TYR106     -0.2864
     46  CB        21.7270  -14.1780   39.3770 C.3   106  TYR106      0.0560
     47  CG        22.7720  -14.9200   40.1630 C.ar  106  TYR106     -0.0198
     48  CD1       24.0170  -14.3430   40.4070 C.ar  106  TYR106     -0.0009
     49  CD2       22.5250  -16.2020   40.6570 C.ar  106  TYR106     -0.0009
     50  CE1       24.9950  -15.0200   41.1280 C.ar  106  TYR106      0.0417
     51  CE2       23.5000  -16.8920   41.3780 C.ar  106  TYR106      0.0417
     52  CZ        24.7340  -16.2910   41.6130 C.ar  106  TYR106      0.1957
     53  OH        25.7070  -16.9340   42.3430 O.3   106  TYR106     -0.2866
     54  N         30.4900  -12.0230   40.2170 N.3   114  TYR114     -0.1241
     55  CA        29.6230  -10.9170   40.6020 C.3   114  TYR114      0.1605
     56  C         30.1190   -9.9100   41.6280 C.2   114  TYR114      0.2264
     57  O         29.8720   -8.7090   41.4760 O.2   114  TYR114     -0.2867
     58  CB        28.2660  -11.4460   41.0290 C.3   114  TYR114      0.0534
     59  CG        27.5280  -12.0450   39.8720 C.ar  114  TYR114     -0.0201
     60  CD1       27.6130  -13.4100   39.5990 C.ar  114  TYR114     -0.0009
     61  CD2       26.7730  -11.2440   39.0160 C.ar  114  TYR114     -0.0009
     62  CE1       26.9630  -13.9660   38.5080 C.ar  114  TYR114      0.0417
     63  CE2       26.1220  -11.7850   37.9200 C.ar  114  TYR114      0.0417
     64  CZ        26.2180  -13.1500   37.6700 C.ar  114  TYR114      0.1957
     65  OH        25.5590  -13.7040   36.5940 O.3   114  TYR114     -0.2866
     66  N         32.3300   -6.5940   40.7330 N.3   117  ILE117     -0.1231
     67  CA        31.8450   -5.3450   40.1560 C.3   117  ILE117      0.1692
     68  C         31.6960   -4.3040   41.2610 C.2   117  ILE117      0.2591
     69  O         31.4160   -3.1360   40.9890 O.2   117  ILE117     -0.2718
     70  CB        30.4720   -5.5260   39.4560 C.3   117  ILE117      0.0266
     71  CG1       29.3960   -5.8460   40.4920 C.3   117  ILE117      0.0019
     72  CG2       30.5570   -6.6320   38.4190 C.3   117  ILE117      0.0020
     73  CD1       28.0430   -6.0910   39.9000 C.3   117  ILE117      0.0001
     74  N         31.8930   -4.7340   42.5060 N.am  118  LEU118     -0.1980
     75  CA        31.7610   -3.8510   43.6640 C.3   118  LEU118      0.1596
     76  C         33.0440   -3.0990   44.0040 C.2   118  LEU118      0.2287
     77  O         34.1400   -3.6540   43.9210 O.2   118  LEU118     -0.2864
     78  CB        31.3220   -4.6520   44.8880 C.3   118  LEU118      0.0297
     79  CG        30.0260   -5.4450   44.7410 C.3   118  LEU118      0.0022
     80  CD1       29.7610   -6.2280   46.0230 C.3   118  LEU118      0.0001
     81  CD2       28.8820   -4.4960   44.4310 C.3   118  LEU118      0.0001
     82  N         24.3380  -11.6170   51.5550 N.3   129  TYR129     -0.1241
     83  CA        24.7010  -11.5820   50.1370 C.3   129  TYR129      0.1605
     84  C         24.5250  -12.9700   49.5030 C.2   129  TYR129      0.2264
     85  O         23.8670  -13.1210   48.4670 O.2   129  TYR129     -0.2867
     86  CB        26.1520  -11.1190   49.9820 C.3   129  TYR129      0.0534
     87  CG        26.6520  -11.0600   48.5550 C.ar  129  TYR129     -0.0201
     88  CD1       26.2800  -10.0230   47.6970 C.ar  129  TYR129     -0.0009
     89  CD2       27.5110  -12.0400   48.0650 C.ar  129  TYR129     -0.0009
     90  CE1       26.7620   -9.9680   46.3860 C.ar  129  TYR129      0.0417
     91  CE2       27.9910  -11.9930   46.7650 C.ar  129  TYR129      0.0417
     92  CZ        27.6190  -10.9590   45.9300 C.ar  129  TYR129      0.1957
     93  OH        28.1310  -10.9250   44.6500 O.3   129  TYR129     -0.2866
     94  N         21.0190  -13.7050   49.0770 N.3   132  LEU132     -0.1231
     95  CA        20.4210  -13.1120   47.8880 C.3   132  LEU132      0.1693
     96  C         20.7100  -13.9650   46.6610 C.2   132  LEU132      0.2591
     97  O         19.8070  -14.3120   45.8880 O.2   132  LEU132     -0.2718
     98  CB        20.9670  -11.7020   47.6390 C.3   132  LEU132      0.0284
     99  CG        20.2480  -10.4860   48.2300 C.3   132  LEU132      0.0019
    100  CD1       20.9400   -9.2120   47.7380 C.3   132  LEU132      0.0001
    101  CD2       18.7800  -10.4910   47.8000 C.3   132  LEU132      0.0001
    102  N         21.9820  -14.3000   46.4890 N.am  133  LEU133     -0.1980
    103  CA        22.4040  -15.0880   45.3450 C.3   133  LEU133      0.1596
    104  C         21.6750  -16.4130   45.2670 C.2   133  LEU133      0.2287
    105  O         21.3560  -16.8890   44.1740 O.2   133  LEU133     -0.2864
    106  CB        23.9230  -15.3120   45.3800 C.3   133  LEU133      0.0297
    107  CG        24.7540  -14.0320   45.2380 C.3   133  LEU133      0.0022
    108  CD1       26.2330  -14.3810   45.0940 C.3   133  LEU133      0.0001
    109  CD2       24.2780  -13.2550   44.0260 C.3   133  LEU133      0.0001
    110  N         18.6130  -17.0250   46.4730 N.3   135  TYR135     -0.1227
    111  CA        17.2470  -16.7490   46.0740 C.3   135  TYR135      0.1736
    112  C         17.2050  -16.4730   44.5760 C.2   135  TYR135      0.2596
    113  O         16.3040  -16.9330   43.8710 O.2   135  TYR135     -0.2718
    114  CB        16.6850  -15.5440   46.8280 C.3   135  TYR135      0.0548
    115  CG        15.2360  -15.2740   46.4860 C.ar  135  TYR135     -0.0200
    116  CD1       14.2140  -16.0820   46.9940 C.ar  135  TYR135     -0.0009
    117  CD2       14.8910  -14.2520   45.6030 C.ar  135  TYR135     -0.0009
    118  CE1       12.8850  -15.8780   46.6260 C.ar  135  TYR135      0.0417
    119  CE2       13.5690  -14.0420   45.2270 C.ar  135  TYR135      0.0417
    120  CZ        12.5710  -14.8580   45.7400 C.ar  135  TYR135      0.1957
    121  OH        11.2650  -14.6600   45.3520 O.3   135  TYR135     -0.2866
    122  N         18.1940  -15.7320   44.0890 N.am  136  SER136     -0.1952
    123  CA        18.2530  -15.3870   42.6770 C.3   136  SER136      0.1924
    124  C         18.5140  -16.5910   41.7920 C.2   136  SER136      0.2314
    125  O         18.3870  -16.5050   40.5730 O.2   136  SER136     -0.2863
    126  CB        19.3310  -14.3330   42.4340 C.3   136  SER136      0.2116
    127  OG        19.0480  -13.1510   43.1590 O.3   136  SER136     -0.2180
    128  N          4.9980  -10.0630   39.9110 N.3   156  LYS156     -0.1245
    129  CA         5.6690   -8.9050   39.3320 C.3   156  LYS156      0.1561
    130  C          6.5210   -9.4430   38.1890 C.2   156  LYS156      0.2260
    131  O          7.2090  -10.4400   38.3520 O.2   156  LYS156     -0.2867
    132  CB         6.5820   -8.2360   40.3730 C.3   156  LYS156      0.0271
    133  CG         7.5740   -7.2270   39.7960 C.3   156  LYS156      0.0035
    134  CD         8.6910   -6.9210   40.7860 C.3   156  LYS156      0.0206
    135  CE         9.6820   -5.9230   40.2040 C.3   156  LYS156      0.1093
    136  NZ        10.8500   -5.7090   41.0970 N.3   156  LYS156     -0.1314
    137  N         19.2500    3.1070   37.3400 N.3   191  HIS191     -0.1241
    138  CA        19.0150    1.7940   37.9320 C.3   191  HIS191      0.1621
    139  C         20.2410    0.9210   37.6410 C.2   191  HIS191      0.2264
    140  O         20.7520    0.2290   38.5290 O.2   191  HIS191     -0.2867
    141  CB        17.7490    1.1730   37.3270 C.3   191  HIS191      0.0745
    142  CG        17.4790   -0.2320   37.7700 C.ar  191  HIS191      0.0817
    143  ND1       17.8420   -1.3320   37.0200 N.ar  191  HIS191     -0.2268
    144  CD2       16.8590   -0.7170   38.8740 C.ar  191  HIS191      0.1154
    145  CE1       17.4550   -2.4340   37.6420 C.ar  191  HIS191      0.1986
    146  NE2       16.8560   -2.0890   38.7690 N.ar  191  HIS191     -0.2212
    147  N         22.9390   -0.8100   40.6130 N.3   195  LEU195     -0.1245
    148  CA        23.3560   -2.1900   40.8500 C.3   195  LEU195      0.1561
    149  C         24.6870   -2.5740   40.1930 C.2   195  LEU195      0.2260
    150  O         25.0590   -3.7410   40.1750 O.2   195  LEU195     -0.2867
    151  CB        22.2530   -3.1310   40.3720 C.3   195  LEU195      0.0270
    152  CG        20.8870   -2.8970   41.0380 C.3   195  LEU195      0.0019
    153  CD1       19.7380   -3.4930   40.1970 C.3   195  LEU195      0.0001
    154  CD2       20.9220   -3.4980   42.4360 C.3   195  LEU195      0.0001
    155  N         25.6220   -2.5180   36.9400 N.3   197  LEU197     -0.1245
    156  CA        25.4290   -3.3400   35.7580 C.3   197  LEU197      0.1561
    157  C         26.1740   -2.6930   34.5990 C.2   197  LEU197      0.2260
    158  O         26.7320   -3.3670   33.7310 O.2   197  LEU197     -0.2867
    159  CB        23.9420   -3.4140   35.4080 C.3   197  LEU197      0.0270
    160  CG        22.9820   -3.9330   36.4740 C.3   197  LEU197      0.0019
    161  CD1       21.5480   -3.8760   35.9420 C.3   197  LEU197      0.0001
    162  CD2       23.3580   -5.3590   36.8320 C.3   197  LEU197      0.0001
    163  N         13.9960   -0.9130   49.1970 N.3   289  MET289     -0.1245
    164  CA        15.1110   -1.8580   49.1520 C.3   289  MET289      0.1570
    165  C         16.4450   -1.2570   49.6180 C.2   289  MET289      0.2261
    166  O         17.5090   -1.5750   49.0740 O.2   289  MET289     -0.2867
    167  CB        15.2750   -2.4360   47.7390 C.3   289  MET289      0.0387
    168  CG        14.1030   -3.3100   47.2820 C.3   289  MET289      0.0595
    169  SD        14.2720   -3.9530   45.5850 S.3   289  MET289     -0.1393
    170  CE        14.2150   -5.7220   45.8830 C.3   289  MET289      0.0692
    171  N         19.2970   -3.3670   51.0270 N.3   292  TYR292     -0.1241
    172  CA        20.2810   -3.9190   50.0990 C.3   292  TYR292      0.1605
    173  C         21.5970   -3.1420   50.2350 C.2   292  TYR292      0.2264
    174  O         22.6790   -3.6880   50.0150 O.2   292  TYR292     -0.2867
    175  CB        19.7740   -3.8290   48.6580 C.3   292  TYR292      0.0534
    176  CG        18.8360   -4.9490   48.2350 C.ar  292  TYR292     -0.0201
    177  CD1       18.2490   -5.7970   49.1760 C.ar  292  TYR292     -0.0009
    178  CD2       18.5220   -5.1460   46.8880 C.ar  292  TYR292     -0.0009
    179  CE1       17.3720   -6.8120   48.7850 C.ar  292  TYR292      0.0417
    180  CE2       17.6500   -6.1540   46.4870 C.ar  292  TYR292      0.0417
    181  CZ        17.0780   -6.9830   47.4390 C.ar  292  TYR292      0.1957
    182  OH        16.2190   -7.9840   47.0480 O.3   292  TYR292     -0.2866
    183  N         25.4960   -4.0370   48.1570 N.3   297  ILE297     -0.1245
    184  CA        25.4510   -4.1540   46.7030 C.3   297  ILE297      0.1561
    185  C         24.8540   -2.9670   45.9560 C.2   297  ILE297      0.2260
    186  O         24.5650   -3.0690   44.7610 O.2   297  ILE297     -0.2867
    187  CB        24.7020   -5.4230   46.2610 C.3   297  ILE297      0.0252
    188  CG1       23.2230   -5.3250   46.6500 C.3   297  ILE297      0.0019
    189  CG2       25.3610   -6.6420   46.8720 C.3   297  ILE297      0.0019
    190  CD1       22.3460   -6.3780   45.9740 C.3   297  ILE297      0.0001
    191  N         16.4480    3.1590   44.4720 N.3   304  PHE304     -0.1241
    192  CA        15.4170    2.5440   43.6460 C.3   304  PHE304      0.1605
    193  C         14.3460    3.5760   43.3580 C.2   304  PHE304      0.2264
    194  O         13.8870    3.6940   42.2290 O.2   304  PHE304     -0.2867
    195  CB        14.7870    1.3400   44.3380 C.3   304  PHE304      0.0534
    196  CG        15.5980    0.0870   44.2250 C.ar  304  PHE304     -0.0203
    197  CD1       16.5990   -0.2030   45.1560 C.ar  304  PHE304     -0.0042
    198  CD2       15.3480   -0.8260   43.1960 C.ar  304  PHE304     -0.0042
    199  CE1       17.3460   -1.3920   45.0740 C.ar  304  PHE304     -0.0003
    200  CE2       16.0850   -2.0180   43.1020 C.ar  304  PHE304     -0.0003
    201  CZ        17.0880   -2.3010   44.0480 C.ar  304  PHE304     -0.0000
@<TRIPOS>BOND
     1     4     3    2
     2     1     2    1
     3   158   157    2
     4     3     2    1
     5     5     2    1
     6     5     6    1
     7   157   156    1
     8     8     6   ar
     9     8    10   ar
    10     6     7   ar
    11   159   156    1
    12   159   160    1
    13    10    11   ar
    14   156   155    1
    15    34    35    1
    16    35    38    1
    17    35    36    1
    18   161   160    1
    19    39    38    1
    20    39    41    1
    21     7     9   ar
    22   160   162    1
    23    37    36    2
    24    38    40    1
    25    36    42   am
    26    65    64    1
    27    11     9   ar
    28   143   145   ar
    29   143   142   ar
    30    45    44    2
    31    42    43    1
    32    44    43    1
    33   141   142    1
    34   141   138    1
    35   137   138    1
    36    29    28    1
    37   139   138    1
    38   139   140    2
    39   145   146   ar
    40    64    63   ar
    41    64    62   ar
    42   142   144   ar
    43    30    31    1
    44    43    46    1
    45    63    61   ar
    46    27    28   ar
    47    27    25   ar
    48   130   131    2
    49   130   129    1
    50    28    26   ar
    51    72    70    1
    52    62    60   ar
    53    32    31    1
    54    32    33    2
    55   146   144   ar
    56    25    23   ar
    57    61    59   ar
    58   129   128    1
    59   129   132    1
    60    46    47    1
    61    70    67    1
    62    70    71    1
    63    60    59   ar
    64    26    24   ar
    65    21    20    2
    66   133   132    1
    67   133   134    1
    68    20    19    1
    69    59    58    1
    70    73    71    1
    71    67    66    1
    72    67    68    1
    73    47    48   ar
    74    47    49   ar
    75   150   149    2
    76   149   148    1
    77   153   152    1
    78   135   134    1
    79   135   136    1
    80    54    55    1
    81    23    24   ar
    82    23    22    1
    83   151   148    1
    84   151   152    1
    85    48    50   ar
    86   125   124    2
    87    55    58    1
    88    55    56    1
    89   147   148    1
    90    49    51   ar
    91    19    22    1
    92    19    18    1
    93    69    68    2
    94   152   154    1
    95    50    52   ar
    96    68    74   am
    97    51    52   ar
    98    57    56    2
    99    52    53    1
   100   124   123    1
   101   194   193    2
   102   126   123    1
   103   126   127    1
   104    74    75    1
   105   123   122    1
   106   200   198   ar
   107   200   201   ar
   108   198   196   ar
   109   193   192    1
   110   192   195    1
   111   192   191    1
   112    75    76    1
   113    75    78    1
   114   113   112    2
   115    77    76    2
   116   109   107    1
   117   201   199   ar
   118   122   112   am
   119   105   104    2
   120   196   195    1
   121   196   197   ar
   122    81    79    1
   123   112   111    1
   124    93    92    1
   125    79    78    1
   126    79    80    1
   127   186   185    2
   128   199   197   ar
   129   108   107    1
   130   119   117   ar
   131   119   120   ar
   132   107   106    1
   133   104   103    1
   134   103   106    1
   135   103   102    1
   136   121   120    1
   137   169   170    1
   138   169   168    1
   139   117   115   ar
   140   120   118   ar
   141    97    96    2
   142    92    90   ar
   143    92    91   ar
   144   185   184    1
   145   190   188    1
   146   111   110    1
   147   111   114    1
   148   187   188    1
   149   187   184    1
   150   187   189    1
   151    90    88   ar
   152   115   114    1
   153   115   116   ar
   154   180   178   ar
   155   180   181   ar
   156   102    96   am
   157   118   116   ar
   158    96    95    1
   159   184   183    1
   160    91    89   ar
   161   178   176   ar
   162   182   181    1
   163   168   167    1
   164   181   179   ar
   165    98    95    1
   166    98    99    1
   167    88    87   ar
   168   100    99    1
   169   167   164    1
   170    13    16    1
   171    13    12    1
   172    13    14    1
   173   101    99    1
   174    15    14    2
   175    95    94    1
   176    16    17    1
   177    89    87   ar
   178   176   175    1
   179   176   177   ar
   180    85    84    2
   181    87    86    1
   182   175   172    1
   183   179   177   ar
   184   166   165    2
   185   164   163    1
   186   164   165    1
   187    84    83    1
   188    86    83    1
   189   174   173    2
   190   172   173    1
   191   172   171    1
   192    83    82    1
