@<TRIPOS>MOLECULE
tmp/1x8kB00.pdb
 212 201 0 0 0
SMALL
GASTEIGER

@<TRIPOS>ATOM
      1  N         40.9850    6.5700   -7.1220 N.3    26  PHE26      -0.1241
      2  CA        41.2720    7.4150   -5.9690 C.3    26  PHE26       0.1605
      3  C         41.6500    8.8420   -6.3900 C.2    26  PHE26       0.2264
      4  O         42.5880    9.0340   -7.1710 O.2    26  PHE26      -0.2867
      5  CB        42.3540    6.7700   -5.1000 C.3    26  PHE26       0.0534
      6  CG        42.6180    7.5010   -3.8160 C.ar   26  PHE26      -0.0203
      7  CD1       41.6860    7.4760   -2.7760 C.ar   26  PHE26      -0.0042
      8  CD2       43.8120    8.2230   -3.6390 C.ar   26  PHE26      -0.0042
      9  CE1       41.9450    8.1580   -1.5770 C.ar   26  PHE26      -0.0003
     10  CE2       44.0730    8.8970   -2.4480 C.ar   26  PHE26      -0.0003
     11  CZ        43.1450    8.8660   -1.4200 C.ar   26  PHE26      -0.0000
     12  N         56.3700    2.6990    4.9090 N.3    67  GLN67      -0.1231
     13  CA        55.1430    2.1360    5.4820 C.3    67  GLN67       0.1698
     14  C         55.0820    0.5940    5.5140 C.2    67  GLN67       0.2592
     15  O         55.7000   -0.0890    4.6840 O.2    67  GLN67      -0.2718
     16  CB        53.9270    2.6640    4.7250 C.3    67  GLN67       0.0381
     17  CG        53.8890    2.2070    3.2550 C.3    67  GLN67       0.0905
     18  CD        52.5330    2.3500    2.6690 C.2    67  GLN67       0.2608
     19  OE1       51.8270    1.3620    2.5040 O.2    67  GLN67      -0.2717
     20  NE2       52.1370    3.5860    2.3770 N.am   67  GLN67      -0.0878
     21  N         54.3070    0.0720    6.4680 N.am   68  ARG68      -0.1980
     22  CA        54.0560   -1.3670    6.6270 C.3    68  ARG68       0.1597
     23  C         55.3070   -2.1740    6.9690 C.2    68  ARG68       0.2287
     24  O         55.4190   -3.3490    6.6070 O.2    68  ARG68      -0.2864
     25  CB        53.3200   -1.9370    5.4150 C.3    68  ARG68       0.0334
     26  CG        52.1210   -1.1250    4.9970 C.3    68  ARG68       0.0492
     27  CD        51.1380   -0.9300    6.1120 C.3    68  ARG68       0.2205
     28  NE        50.3740   -2.1380    6.4080 N.pl3  68  ARG68      -0.0865
     29  CZ        49.5920   -2.2900    7.4700 C.cat  68  ARG68       0.5346
     30  NH1       49.4920   -1.3160    8.3690 N.pl3  68  ARG68       0.1354
     31  NH2       48.9180   -3.4190    7.6470 N.pl3  68  ARG68       0.1354
     32  N         56.0360    0.3170   11.9260 N.3    71  THR71      -0.1218
     33  CA        55.8110    1.5890   12.5930 C.3    71  THR71       0.1862
     34  C         54.9960    1.4610   13.8740 C.2    71  THR71       0.2287
     35  O         55.4380    1.9290   14.9050 O.2    71  THR71      -0.2866
     36  CB        55.1480    2.5570   11.6380 C.3    71  THR71       0.1770
     37  OG1       55.7380    2.3910   10.3310 O.3    71  THR71      -0.2211
     38  CG2       55.4620    3.9910   12.0440 C.3    71  THR71       0.0375
     39  N         51.4620   12.4260   12.8810 N.3   100  TYR100     -0.1241
     40  CA        51.7960   11.7880   11.6160 C.3   100  TYR100      0.1605
     41  C         52.1980   12.8730   10.6220 C.2   100  TYR100      0.2264
     42  O         51.3760   13.3470    9.8420 O.2   100  TYR100     -0.2867
     43  CB        50.5820   10.9980   11.1270 C.3   100  TYR100      0.0534
     44  CG        50.7410   10.1480    9.8680 C.ar  100  TYR100     -0.0201
     45  CD1       49.6650    9.4090    9.3940 C.ar  100  TYR100     -0.0009
     46  CD2       51.9420   10.0860    9.1510 C.ar  100  TYR100     -0.0009
     47  CE1       49.7800    8.6190    8.2570 C.ar  100  TYR100      0.0417
     48  CE2       52.0580    9.3140    8.0030 C.ar  100  TYR100      0.0417
     49  CZ        50.9740    8.5820    7.5690 C.ar  100  TYR100      0.1957
     50  OH        51.0450    7.7910    6.4500 O.3   100  TYR100     -0.2866
     51  N         50.9500   12.4220    7.0070 N.3   103  GLY103     -0.1225
     52  CA        49.6430   11.8210    6.8580 C.3   103  GLY103      0.1811
     53  C         48.7270   12.7130    6.0570 C.2   103  GLY103      0.2280
     54  O         47.8780   12.2330    5.3080 O.2   103  GLY103     -0.2866
     55  N         47.5140   12.7260    1.6650 N.3   106  ILE106     -0.1231
     56  CA        46.6910   11.7940    0.9000 C.3   106  ILE106      0.1692
     57  C         45.3140   12.3670    0.5620 C.2   106  ILE106      0.2592
     58  O         44.5120   11.7310   -0.1290 O.2   106  ILE106     -0.2718
     59  CB        46.5590   10.4700    1.6640 C.3   106  ILE106      0.0266
     60  CG1       46.1400    9.3420    0.7170 C.3   106  ILE106      0.0019
     61  CG2       45.5820   10.6290    2.8500 C.3   106  ILE106      0.0020
     62  CD1       45.9040    8.0310    1.4220 C.3   106  ILE106      0.0001
     63  N         45.0660   13.5740    1.0530 N.am  107  TYR107     -0.1976
     64  CA        43.7920   14.2500    0.8790 C.3   107  TYR107      0.1639
     65  C         43.9890   15.6280    0.2720 C.2   107  TYR107      0.2290
     66  O         44.6870   16.4760    0.8470 O.2   107  TYR107     -0.2864
     67  CB        43.1240   14.3970    2.2390 C.3   107  TYR107      0.0560
     68  CG        41.8600   15.1880    2.2060 C.ar  107  TYR107     -0.0198
     69  CD1       40.7080   14.6770    1.5880 C.ar  107  TYR107     -0.0009
     70  CD2       41.8000   16.4620    2.7690 C.ar  107  TYR107     -0.0009
     71  CE1       39.5240   15.4150    1.5460 C.ar  107  TYR107      0.0417
     72  CE2       40.6200   17.2010    2.7280 C.ar  107  TYR107      0.0417
     73  CZ        39.4900   16.6630    2.1180 C.ar  107  TYR107      0.1957
     74  OH        38.3260   17.3710    2.0870 O.3   107  TYR107     -0.2866
     75  N         35.8570   11.9870   -2.5250 N.3   115  TYR115     -0.1241
     76  CA        36.3630   10.9140   -1.6860 C.3   115  TYR115      0.1605
     77  C         35.2900    9.9520   -1.1810 C.2   115  TYR115      0.2264
     78  O         35.5860    8.7900   -0.9630 O.2   115  TYR115     -0.2867
     79  CB        37.2760   11.4150   -0.5590 C.3   115  TYR115      0.0534
     80  CG        38.5790   12.0350   -1.0450 C.ar  115  TYR115     -0.0201
     81  CD1       38.6550   13.4000   -1.3300 C.ar  115  TYR115     -0.0009
     82  CD2       39.7260   11.2670   -1.2250 C.ar  115  TYR115     -0.0009
     83  CE1       39.8260   13.9850   -1.7730 C.ar  115  TYR115      0.0417
     84  CE2       40.9110   11.8390   -1.6830 C.ar  115  TYR115      0.0417
     85  CZ        40.9540   13.2060   -1.9470 C.ar  115  TYR115      0.1957
     86  OH        42.1170   13.8180   -2.3940 O.3   115  TYR115     -0.2866
     87  N         34.2560    6.6810   -3.6670 N.3   118  ILE118     -0.1245
     88  CA        35.0890    5.4640   -3.7010 C.3   118  ILE118      0.1561
     89  C         34.6270    4.3860   -2.7160 C.2   118  ILE118      0.2260
     90  O         35.1090    3.2500   -2.7530 O.2   118  ILE118     -0.2867
     91  CB        36.6000    5.8040   -3.4450 C.3   118  ILE118      0.0252
     92  CG1       36.7960    6.4540   -2.0800 C.3   118  ILE118      0.0019
     93  CG2       37.1610    6.7120   -4.5370 C.3   118  ILE118      0.0019
     94  CD1       38.1650    6.2510   -1.4700 C.3   118  ILE118      0.0001
     95  N         33.4270   11.8380    9.7940 N.3   130  TYR130     -0.1241
     96  CA        34.0930   11.7360    8.5050 C.3   130  TYR130      0.1605
     97  C         34.5450   13.1070    8.0170 C.2   130  TYR130      0.2264
     98  O         35.6390   13.2290    7.4630 O.2   130  TYR130     -0.2867
     99  CB        33.2100   11.0260    7.4690 C.3   130  TYR130      0.0534
    100  CG        33.7410   11.0520    6.0460 C.ar  130  TYR130     -0.0201
    101  CD1       34.6190   10.0790    5.5830 C.ar  130  TYR130     -0.0009
    102  CD2       33.3470   12.0390    5.1690 C.ar  130  TYR130     -0.0009
    103  CE1       35.0990   10.1000    4.2960 C.ar  130  TYR130      0.0417
    104  CE2       33.8200   12.0640    3.8770 C.ar  130  TYR130      0.0417
    105  CZ        34.6920   11.0930    3.4500 C.ar  130  TYR130      0.1957
    106  OH        35.1430   11.1530    2.1600 O.3   130  TYR130     -0.2866
    107  N         37.4920   14.0040   10.0640 N.3   133  LEU133     -0.1231
    108  CA        38.7550   13.4150    9.6190 C.3   133  LEU133      0.1693
    109  C         39.3230   14.2250    8.4580 C.2   133  LEU133      0.2591
    110  O         40.5130   14.5980    8.4670 O.2   133  LEU133     -0.2718
    111  CB        38.6150   11.9390    9.2400 C.3   133  LEU133      0.0284
    112  CG        39.2210   10.8670   10.1700 C.3   133  LEU133      0.0019
    113  CD1       40.7490   10.7910   10.1060 C.3   133  LEU133      0.0001
    114  CD2       38.7910   11.0610   11.6300 C.3   133  LEU133      0.0001
    115  N         38.4560   14.5260    7.4820 N.am  134  LEU134     -0.1980
    116  CA        38.8530   15.2980    6.3110 C.3   134  LEU134      0.1596
    117  C         39.5290   16.5940    6.7450 C.2   134  LEU134      0.2287
    118  O         40.6040   16.9450    6.2400 O.2   134  LEU134     -0.2864
    119  CB        37.6380   15.6140    5.4320 C.3   134  LEU134      0.0297
    120  CG        36.8920   14.4680    4.7430 C.3   134  LEU134      0.0022
    121  CD1       35.9050   15.0180    3.7410 C.3   134  LEU134      0.0001
    122  CD2       37.8560   13.4700    4.0950 C.3   134  LEU134      0.0001
    123  N         42.9550   16.0300    8.3150 N.3   137  SER137     -0.1217
    124  CA        43.8540   15.7040    7.2060 C.3   137  SER137      0.1889
    125  C         44.2920   16.8980    6.3490 C.2   137  SER137      0.2288
    126  O         45.2330   16.7880    5.5600 O.2   137  SER137     -0.2866
    127  CB        43.1870   14.6660    6.3030 C.3   137  SER137      0.2089
    128  OG        43.5070   13.3440    6.7170 O.3   137  SER137     -0.2183
    129  N         55.4860   10.4100   14.0270 N.3   157  LYS157     -0.1245
    130  CA        55.3760    9.3070   13.0560 C.3   157  LYS157      0.1561
    131  C         55.6170    9.8600   11.6680 C.2   157  LYS157      0.2260
    132  O         55.1110   10.9180   11.3450 O.2   157  LYS157     -0.2867
    133  CB        53.9820    8.6680   13.1040 C.3   157  LYS157      0.0271
    134  CG        53.7480    7.5600   12.0720 C.3   157  LYS157      0.0035
    135  CD        52.2620    7.3400   11.8230 C.3   157  LYS157      0.0206
    136  CE        51.9910    5.9700   11.2020 C.3   157  LYS157      0.1093
    137  NZ        50.5470    5.7110   10.9510 N.3   157  LYS157     -0.1314
    138  N         56.7370    8.5860    7.2790 N.3   159  HIS159     -0.1241
    139  CA        57.1740    7.6700    6.2290 C.3   159  HIS159      0.1621
    140  C         58.0550    8.3880    5.2050 C.2   159  HIS159      0.2264
    141  O         58.4760    7.7850    4.2150 O.2   159  HIS159     -0.2867
    142  CB        55.9630    7.0700    5.5330 C.3   159  HIS159      0.0745
    143  CG        55.1380    6.1900    6.4180 C.ar  159  HIS159      0.0817
    144  ND1       55.6590    5.0900    7.0690 N.ar  159  HIS159     -0.2268
    145  CD2       53.8270    6.2460    6.7590 C.ar  159  HIS159      0.1154
    146  CE1       54.7030    4.5100    7.7750 C.ar  159  HIS159      0.1986
    147  NE2       53.5840    5.1920    7.6060 N.ar  159  HIS159     -0.2212
    148  N         46.8450   -2.9210    2.5880 N.3   192  HIS192     -0.1241
    149  CA        46.6110   -1.6240    3.2090 C.3   192  HIS192      0.1621
    150  C         45.9110   -0.6940    2.2250 C.2   192  HIS192      0.2264
    151  O         44.9400   -0.0080    2.5900 O.2   192  HIS192     -0.2867
    152  CB        47.9210   -1.0320    3.6760 C.3   192  HIS192      0.0745
    153  CG        47.7890    0.3440    4.2250 C.ar  192  HIS192      0.0817
    154  ND1       47.8990    1.4690    3.4400 N.ar  192  HIS192     -0.2268
    155  CD2       47.5770    0.7830    5.4870 C.ar  192  HIS192      0.1154
    156  CE1       47.7470    2.5420    4.1920 C.ar  192  HIS192      0.1986
    157  NE2       47.5500    2.1540    5.4380 N.ar  192  HIS192     -0.2212
    158  N         41.9060    1.0570    2.8410 N.3   196  LEU196     -0.1245
    159  CA        41.4670    2.4490    2.7550 C.3   196  LEU196      0.1561
    160  C         40.7190    2.7500    1.4780 C.2   196  LEU196      0.2260
    161  O         40.2230    3.8630    1.3060 O.2   196  LEU196     -0.2867
    162  CB        42.6590    3.3940    2.8840 C.3   196  LEU196      0.0270
    163  CG        43.3760    3.1920    4.2160 C.3   196  LEU196      0.0019
    164  CD1       44.7460    3.9530    4.2740 C.3   196  LEU196      0.0001
    165  CD2       42.4270    3.5120    5.4110 C.3   196  LEU196      0.0001
    166  N         42.2370    2.6750   -1.5290 N.3   198  LEU198     -0.1245
    167  CA        43.1420    3.4180   -2.3950 C.3   198  LEU198      0.1561
    168  C         43.2600    2.7820   -3.7660 C.2   198  LEU198      0.2260
    169  O         43.4930    3.4680   -4.7610 O.2   198  LEU198     -0.2867
    170  CB        44.5280    3.5450   -1.7540 C.3   198  LEU198      0.0270
    171  CG        44.5600    4.0920   -0.3320 C.3   198  LEU198      0.0019
    172  CD1       45.9920    4.1560    0.1870 C.3   198  LEU198      0.0001
    173  CD2       43.9250    5.4660   -0.3280 C.3   198  LEU198      0.0001
    174  N         43.0630    0.9700   14.9710 N.3   290  MET290     -0.1245
    175  CA        42.3100    1.8940   14.0920 C.3   290  MET290      0.1570
    176  C         40.9060    1.4060   13.7140 C.2   290  MET290      0.2261
    177  O         40.3160    1.8940   12.7510 O.2   290  MET290     -0.2867
    178  CB        43.0710    2.2470   12.8000 C.3   290  MET290      0.0387
    179  CG        44.4790    2.8010   12.9870 C.3   290  MET290      0.0595
    180  SD        44.8490    4.4430   12.2270 S.3   290  MET290     -0.1393
    181  CE        46.1580    4.9910   13.4870 C.3   290  MET290      0.0692
    182  N         37.8180    3.6820   13.1110 N.3   293  TYR293     -0.1241
    183  CA        37.4830    4.0840   11.7420 C.3   293  TYR293      0.1605
    184  C         36.3280    3.2940   11.0680 C.2   293  TYR293      0.2264
    185  O         35.5830    3.8210   10.2190 O.2   293  TYR293     -0.2867
    186  CB        38.7380    4.0380   10.8780 C.3   293  TYR293      0.0534
    187  CG        39.7150    5.1820   11.1340 C.ar  293  TYR293     -0.0201
    188  CD1       39.6130    5.9870   12.2760 C.ar  293  TYR293     -0.0009
    189  CD2       40.7510    5.4620   10.2250 C.ar  293  TYR293     -0.0009
    190  CE1       40.5170    7.0330   12.5040 C.ar  293  TYR293      0.0417
    191  CE2       41.6650    6.5050   10.4560 C.ar  293  TYR293      0.0417
    192  CZ        41.5380    7.2830   11.5940 C.ar  293  TYR293      0.1957
    193  OH        42.4130    8.3240   11.8200 O.3   293  TYR293     -0.2866
    194  N         34.7500    4.1430    6.7160 N.3   298  ILE298     -0.1245
    195  CA        35.8310    4.3240    5.7620 C.3   298  ILE298      0.1561
    196  C         36.8490    3.1920    5.6520 C.2   298  ILE298      0.2260
    197  O         37.8720    3.3380    4.9730 O.2   298  ILE298     -0.2867
    198  CB        36.5120    5.7220    5.9190 C.3   298  ILE298      0.0252
    199  CG1       37.3870    5.8010    7.1760 C.3   298  ILE298      0.0019
    200  CG2       35.4720    6.8380    5.8510 C.3   298  ILE298      0.0019
    201  CD1       38.6560    6.6590    6.9670 C.3   298  ILE298      0.0001
    202  N         43.8710   -2.9700    9.8200 N.3   305  PHE305     -0.1241
    203  CA        45.1470   -2.2440    9.9170 C.3   305  PHE305      0.1605
    204  C         46.2850   -3.1290   10.4220 C.2   305  PHE305      0.2264
    205  O         47.4090   -3.0520    9.9140 O.2   305  PHE305     -0.2867
    206  CB        45.0470   -0.9790   10.7810 C.3   305  PHE305      0.0534
    207  CG        46.2970   -0.1290   10.7240 C.ar  305  PHE305     -0.0203
    208  CD1       46.6230    0.5870    9.5510 C.ar  305  PHE305     -0.0042
    209  CD2       47.1750   -0.0720   11.8100 C.ar  305  PHE305     -0.0042
    210  CE1       47.7880    1.3500    9.4690 C.ar  305  PHE305     -0.0003
    211  CE2       48.3570    0.6900   11.7360 C.ar  305  PHE305     -0.0003
    212  CZ        48.6640    1.3970   10.5650 C.ar  305  PHE305     -0.0000
@<TRIPOS>BOND
     1     4     3    2
     2     1     2    1
     3     3     2    1
     4     2     5    1
     5     5     6    1
     6   169   168    2
     7    93    91    1
     8     6     8   ar
     9     6     7   ar
    10   168   167    1
    11    88    87    1
    12    88    91    1
    13    88    89    1
    14     8    10   ar
    15    91    92    1
    16     7     9   ar
    17    90    89    2
    18    75    76    1
    19    10    11   ar
    20   167   170    1
    21   167   166    1
    22    86    85    1
    23    92    94    1
    24    85    83   ar
    25    85    84   ar
    26    83    81   ar
    27   170   171    1
    28    76    77    1
    29    76    79    1
    30    84    82   ar
    31     9    11   ar
    32    81    80   ar
    33    82    80   ar
    34    77    78    2
    35    80    79    1
    36   171   173    1
    37   171   172    1
    38    58    57    2
    39    65    66    2
    40    65    64    1
    41    57    56    1
    42    57    63   am
    43    60    62    1
    44    60    59    1
    45    64    63    1
    46    64    67    1
    47    56    59    1
    48    56    55    1
    49   161   160    2
    50   160   159    1
    51    71    69   ar
    52    71    73   ar
    53    69    68   ar
    54    59    61    1
    55    74    73    1
    56    73    72   ar
    57   106   105    1
    58    68    67    1
    59    68    70   ar
    60   150   151    2
    61   150   149    1
    62    20    18   am
    63    19    18    2
    64   148   149    1
    65    18    17    1
    66    72    70   ar
    67   159   158    1
    68   159   162    1
    69   162   163    1
    70   149   152    1
    71    17    16    1
    72   154   156   ar
    73   154   153   ar
    74   105   104   ar
    75   105   103   ar
    76   152   153    1
    77   121   120    1
    78   104   102   ar
    79   122   120    1
    80   156   157   ar
    81   141   140    2
    82   163   164    1
    83   163   165    1
    84   153   155   ar
    85   103   101   ar
    86    15    14    2
    87    16    13    1
    88   120   119    1
    89    12    13    1
    90   197   196    2
    91    26    25    1
    92    26    27    1
    93   102   100   ar
    94   140   139    1
    95    54    53    2
    96    25    22    1
    97   119   116    1
    98   157   155   ar
    99    13    14    1
   100    14    21   am
   101   142   139    1
   102   142   143    1
   103   126   125    2
   104   101   100   ar
   105   196   195    1
   106   195   198    1
   107   195   194    1
   108   200   198    1
   109   198   199    1
   110   100    99    1
   111    53    52    1
   112    27    28    1
   113   139   138    1
   114   118   117    2
   115   127   128    1
   116   127   124    1
   117   116   117    1
   118   116   115    1
   119   125   124    1
   120    28    29    2
   121   143   145   ar
   122   143   144   ar
   123    50    49    1
   124    21    22    1
   125    24    23    2
   126    22    23    1
   127   145   147   ar
   128    52    51    1
   129   201   199    1
   130   144   146   ar
   131   124   123    1
   132    98    97    2
   133    99    96    1
   134    29    31    1
   135    29    30    1
   136   115   109   am
   137    49    48   ar
   138    49    47   ar
   139   147   146   ar
   140    48    46   ar
   141    97    96    1
   142    47    45   ar
   143   109   110    2
   144   109   108    1
   145    96    95    1
   146    46    44   ar
   147   111   108    1
   148   111   112    1
   149    45    44   ar
   150   210   208   ar
   151   210   212   ar
   152   208   207   ar
   153   108   107    1
   154   202   203    1
   155    42    41    2
   156    44    43    1
   157   205   204    2
   158   203   204    1
   159   203   206    1
   160   113   112    1
   161   112   114    1
   162   185   184    2
   163   189   191   ar
   164   189   187   ar
   165    37    36    1
   166   191   192   ar
   167   212   211   ar
   168    41    40    1
   169   207   206    1
   170   207   209   ar
   171   186   187    1
   172   186   183    1
   173   137   136    1
   174   184   183    1
   175    43    40    1
   176   187   188   ar
   177   136   135    1
   178   132   131    2
   179   192   193    1
   180   192   190   ar
   181    40    39    1
   182    36    38    1
   183    36    33    1
   184   131   130    1
   185   211   209   ar
   186   183   182    1
   187   135   134    1
   188    32    33    1
   189   134   133    1
   190   180   179    1
   191   180   181    1
   192   188   190   ar
   193    33    34    1
   194   177   176    2
   195   178   179    1
   196   178   175    1
   197   130   133    1
   198   130   129    1
   199   176   175    1
   200    34    35    2
   201   175   174    1
