@<TRIPOS>MOLECULE
tmp/1x8qA00.pdb
 141 131 0 0 0
SMALL
GASTEIGER

@<TRIPOS>ATOM
      1  N          9.5370   14.4170   45.6210 N.3    25  VAL25      -0.1245
      2  CA        10.2520   13.5640   44.6780 C.3    25  VAL25       0.1561
      3  C         11.4560   12.9390   45.3860 C.2    25  VAL25       0.2260
      4  O         12.3280   13.6570   45.8540 O.2    25  VAL25      -0.2867
      5  CB        10.7450   14.3540   43.4440 C.3    25  VAL25       0.0252
      6  CG1       11.5700   13.4370   42.5330 C.3    25  VAL25       0.0019
      7  CG2        9.5570   14.9610   42.6880 C.3    25  VAL25       0.0019
      8  N         14.2110   10.1750   40.3430 N.3    28  TYR28      -0.1241
      9  CA        13.6870   10.6020   39.0430 C.3    28  TYR28       0.1605
     10  C         14.4970    9.9670   37.9150 C.2    28  TYR28       0.2264
     11  O         15.6460    9.5710   38.0810 O.2    28  TYR28      -0.2867
     12  CB        13.6690   12.1250   38.9190 C.3    28  TYR28       0.0534
     13  CG        15.0300   12.7700   39.0150 C.ar   28  TYR28      -0.0201
     14  CD1       15.5270   13.1870   40.2830 C.ar   28  TYR28      -0.0009
     15  CD2       15.8580   12.9920   37.9410 C.ar   28  TYR28      -0.0009
     16  CE1       16.7470   13.7630   40.4790 C.ar   28  TYR28       0.0417
     17  CE2       17.1690   13.6050   38.0920 C.ar   28  TYR28       0.0417
     18  CZ        17.5110   13.9430   39.3830 C.ar   28  TYR28       0.1957
     19  OH        18.7560   14.5800   39.5370 O.3    28  TYR28      -0.2866
     20  N         18.9160   16.7370   29.9780 N.3    35  ASP35      -0.1225
     21  CA        17.9090   17.7600   30.1150 C.3    35  ASP35       0.1805
     22  C         17.7690   18.3160   31.5140 C.2    35  ASP35       0.2598
     23  O         17.3980   19.4660   31.6460 O.2    35  ASP35      -0.2718
     24  CB        16.5380   17.1750   29.6760 C.3    35  ASP35       0.1424
     25  CG        16.3930   17.1510   28.1660 C.2    35  ASP35       0.3668
     26  OD1       17.4670   17.3070   27.5360 O.co2  35  ASP35      -0.2456
     27  OD2       15.3090   16.9910   27.5810 O.co2  35  ASP35      -0.2456
     28  N         18.1290   17.5510   32.5550 N.am   36  VAL36      -0.1966
     29  CA        18.0150   18.0340   33.9160 C.3    36  VAL36       0.1712
     30  C         19.3170   17.7390   34.6630 C.2    36  VAL36       0.2458
     31  O         20.0770   16.8490   34.2210 O.2    36  VAL36      -0.2730
     32  CB        16.8140   17.4150   34.6630 C.3    36  VAL36       0.0289
     33  CG1       15.4330   17.6260   34.0440 C.3    36  VAL36       0.0023
     34  CG2       17.0980   15.9180   34.8260 C.3    36  VAL36       0.0023
     35  N         19.6230   18.4600   35.7380 N.am   37  PRO37      -0.2727
     36  CA        20.8900   18.1820   36.4540 C.3    37  PRO37       0.1402
     37  C         20.8730   16.8370   37.1500 C.2    37  PRO37       0.2269
     38  O         19.8970   16.1910   37.4010 O.2    37  PRO37      -0.2865
     39  CB        20.9640   19.2850   37.5130 C.3    37  PRO37       0.0296
     40  CG        20.1090   20.3750   36.9710 C.3    37  PRO37       0.0237
     41  CD        18.9780   19.6790   36.2170 C.3    37  PRO37       0.0939
     42  N         19.2630   17.3440   42.2720 N.3    40  TYR40      -0.1241
     43  CA        18.0710   18.1880   42.2510 C.3    40  TYR40       0.1605
     44  C         17.1560   17.8930   43.3820 C.2    40  TYR40       0.2264
     45  O         17.2490   16.8010   43.9860 O.2    40  TYR40      -0.2867
     46  CB        17.4060   18.0280   40.8800 C.3    40  TYR40       0.0534
     47  CG        16.7790   19.3240   40.4410 C.ar   40  TYR40      -0.0201
     48  CD1       15.4320   19.6500   40.5970 C.ar   40  TYR40      -0.0009
     49  CD2       17.5380   20.2950   39.7830 C.ar   40  TYR40      -0.0009
     50  CE1       14.9540   20.8300   40.1610 C.ar   40  TYR40       0.0417
     51  CE2       17.0360   21.4890   39.3510 C.ar   40  TYR40       0.0417
     52  CZ        15.6780   21.8210   39.5640 C.ar   40  TYR40       0.1957
     53  OH        15.1030   22.9520   39.1090 O.3    40  TYR40      -0.2866
     54  N         12.8150   18.4650   44.3480 N.3    42  ALA42      -0.1245
     55  CA        11.5190   18.9000   43.8380 C.3    42  ALA42       0.1562
     56  C         10.4190   18.3090   44.7110 C.2    42  ALA42       0.2260
     57  O         10.5420   17.2010   45.2830 O.2    42  ALA42      -0.2867
     58  CB        11.3030   18.4830   42.3950 C.3    42  ALA42       0.0290
     59  N         10.8470   23.6330   42.7630 N.3    59  HIS59      -0.1241
     60  CA        12.0950   23.1540   42.2370 C.3    59  HIS59       0.1621
     61  C         13.2550   23.8790   42.9360 C.2    59  HIS59       0.2264
     62  O         13.1820   25.1050   43.1250 O.2    59  HIS59      -0.2867
     63  CB        12.2330   23.4860   40.7460 C.3    59  HIS59       0.0745
     64  CG        11.3880   22.6460   39.8220 C.ar   59  HIS59       0.0817
     65  ND1       10.0370   22.7180   39.7380 N.ar   59  HIS59      -0.2268
     66  CD2       11.7860   21.7800   38.8570 C.ar   59  HIS59       0.1154
     67  CE1        9.6240   21.9040   38.7500 C.ar   59  HIS59       0.1986
     68  NE2       10.6560   21.2960   38.1990 N.ar   59  HIS59      -0.2212
     69  N         19.2770   27.7610   42.3010 N.3    66  ASP66      -0.1239
     70  CA        18.1900   28.1560   41.4570 C.3    66  ASP66       0.1674
     71  C         16.8980   27.5750   42.0450 C.2    66  ASP66       0.2266
     72  O         16.8420   26.3680   42.3310 O.2    66  ASP66      -0.2867
     73  CB        18.3720   27.6770   40.0300 C.3    66  ASP66       0.1410
     74  CG        17.3370   28.2190   39.0860 C.2    66  ASP66       0.3668
     75  OD1       17.1200   29.4420   39.1100 O.co2  66  ASP66      -0.2456
     76  OD2       16.6600   27.4400   38.4230 O.co2  66  ASP66      -0.2456
     77  N         12.4010   27.8850   42.1020 N.3    68  PHE68      -0.1241
     78  CA        11.1750   28.4630   41.5800 C.3    68  PHE68       0.1605
     79  C          9.9820   27.6450   42.0160 C.2    68  PHE68       0.2264
     80  O         10.0680   26.4270   42.1900 O.2    68  PHE68      -0.2867
     81  CB        11.1940   28.6380   40.0310 C.3    68  PHE68       0.0534
     82  CG        11.6700   27.4330   39.2590 C.ar   68  PHE68      -0.0203
     83  CD1       13.0280   27.1920   39.0830 C.ar   68  PHE68      -0.0042
     84  CD2       10.7670   26.5390   38.6880 C.ar   68  PHE68      -0.0042
     85  CE1       13.4770   26.0700   38.3950 C.ar   68  PHE68      -0.0003
     86  CE2       11.2430   25.4180   37.9770 C.ar   68  PHE68      -0.0003
     87  CZ        12.5720   25.1980   37.8450 C.ar   68  PHE68      -0.0000
     88  N          7.1720   18.1120   29.9600 N.3   123  LEU123     -0.1245
     89  CA         7.1350   19.5570   30.0170 C.3   123  LEU123      0.1561
     90  C          7.2940   20.1500   28.6220 C.2   123  LEU123      0.2260
     91  O          8.1490   19.7170   27.8290 O.2   123  LEU123     -0.2867
     92  CB         8.2960   20.0220   30.9120 C.3   123  LEU123      0.0270
     93  CG         8.4450   21.5230   31.1010 C.3   123  LEU123      0.0019
     94  CD1        7.2020   22.1700   31.7470 C.3   123  LEU123      0.0001
     95  CD2        9.6680   21.8480   31.9530 C.3   123  LEU123      0.0001
     96  N          7.8900   24.1140   27.2320 N.3   125  LYS125     -0.1245
     97  CA         8.1950   25.4350   27.7160 C.3   125  LYS125      0.1561
     98  C          8.8310   26.1980   26.5510 C.2   125  LYS125      0.2260
     99  O          9.9840   25.9530   26.2240 O.2   125  LYS125     -0.2867
    100  CB         9.0710   25.4000   28.9470 C.3   125  LYS125      0.0271
    101  CG         9.4720   26.7440   29.5060 C.3   125  LYS125      0.0035
    102  CD        10.2150   26.6240   30.8160 C.3   125  LYS125      0.0206
    103  CE        10.6880   27.9930   31.2840 C.3   125  LYS125      0.1093
    104  NZ        11.4200   27.8570   32.5560 N.3   125  LYS125     -0.1314
    105  N         12.0520   25.3290   24.1250 N.3   128  LYS128     -0.1245
    106  CA        12.9600   24.3080   24.6660 C.3   128  LYS128      0.1561
    107  C         12.6300   22.9220   24.1120 C.2   128  LYS128      0.2260
    108  O         11.4930   22.7080   23.6400 O.2   128  LYS128     -0.2867
    109  CB        12.8630   24.3470   26.1880 C.3   128  LYS128      0.0271
    110  CG        13.4020   25.6580   26.7480 C.3   128  LYS128      0.0035
    111  CD        13.2270   26.0540   28.1860 C.3   128  LYS128      0.0206
    112  CE        14.4290   26.8570   28.7010 C.3   128  LYS128      0.1093
    113  NZ        14.1000   28.0480   29.5100 N.3   128  LYS128     -0.1314
    114  N         12.5670   19.2300   25.5150 N.3   130  LEU130     -0.1245
    115  CA        12.5080   18.5400   26.8040 C.3   130  LEU130      0.1561
    116  C         12.0100   17.1140   26.6100 C.2   130  LEU130      0.2260
    117  O         11.2550   16.8610   25.6720 O.2   130  LEU130     -0.2867
    118  CB        11.6020   19.3430   27.7440 C.3   130  LEU130      0.0270
    119  CG        12.1280   20.7980   27.9070 C.3   130  LEU130      0.0019
    120  CD1       10.9820   21.6600   28.4080 C.3   130  LEU130      0.0001
    121  CD2       13.2990   20.8290   28.8080 C.3   130  LEU130      0.0001
    122  N          9.9500   12.6770   31.7860 N.3   133  LEU133     -0.1245
    123  CA        10.4900   12.6510   33.1560 C.3   133  LEU133      0.1561
    124  C          9.5590   11.7950   34.0170 C.2   133  LEU133      0.2260
    125  O          8.3650   12.0690   34.1310 O.2   133  LEU133     -0.2867
    126  CB        10.6400   14.0600   33.6780 C.3   133  LEU133      0.0270
    127  CG        11.2340   14.2080   35.0810 C.3   133  LEU133      0.0019
    128  CD1       12.6330   13.8500   35.1530 C.3   133  LEU133      0.0001
    129  CD2       10.9480   15.6660   35.5480 C.3   133  LEU133      0.0001
    130  N          8.9840   10.2790   37.9250 N.3   135  ALA135     -0.1245
    131  CA         9.3550   10.6120   39.3070 C.3   135  ALA135      0.1562
    132  C          8.6210    9.6330   40.2450 C.2   135  ALA135      0.2260
    133  O          7.4290    9.3980   40.1580 O.2   135  ALA135     -0.2867
    134  CB         8.9930   12.0290   39.6710 C.3   135  ALA135      0.0290
    135  N         17.2450   11.8390   45.0890 N.3   166  THR166     -0.1218
    136  CA        17.3960   13.2370   45.5590 C.3   166  THR166      0.1862
    137  C         17.8500   13.2970   47.0210 C.2   166  THR166      0.2287
    138  O         18.1520   14.3690   47.5520 O.2   166  THR166     -0.2866
    139  CB        16.0730   13.9770   45.4570 C.3   166  THR166      0.1770
    140  OG1       15.1120   13.2980   46.2890 O.3   166  THR166     -0.2211
    141  CG2       15.5670   14.0720   44.0600 C.3   166  THR166      0.0375
@<TRIPOS>BOND
     1   108   107    2
     2   107   106    1
     3   105   106    1
     4   106   109    1
     5   114   115    1
     6   117   116    2
     7   109   110    1
     8    99    98    2
     9    98    97    1
    10   116   115    1
    11   110   111    1
    12   115   118    1
    13    96    97    1
    14    26    25   ar
    15    27    25   ar
    16    97   100    1
    17   118   119    1
    18    91    90    2
    19   119   120    1
    20   119   121    1
    21    25    24    1
    22   111   112    1
    23    90    89    1
    24   112   113    1
    25   100   101    1
    26   101   102    1
    27    24    21    1
    28    88    89    1
    29    20    21    1
    30    89    92    1
    31    21    22    1
    32   102   103    1
    33    92    93    1
    34    93    94    1
    35    93    95    1
    36   103   104    1
    37    22    23    2
    38    22    28   am
    39   122   123    1
    40    28    29    1
    41   123   126    1
    42   123   124    1
    43   126   127    1
    44    29    32    1
    45    29    30    1
    46   124   125    2
    47    33    32    1
    48    31    30    2
    49    32    34    1
    50    30    35   am
    51   127   128    1
    52   127   129    1
    53    35    41    1
    54    35    36    1
    55    41    40    1
    56    36    37    1
    57    36    39    1
    58    40    39    1
    59    37    38    2
    60    87    86   ar
    61    87    85   ar
    62    10    11    2
    63    10     9    1
    64   130   131    1
    65    15    17   ar
    66    15    13   ar
    67    86    84   ar
    68    17    18   ar
    69    68    67   ar
    70    68    66   ar
    71    85    83   ar
    72    76    74   ar
    73    84    82   ar
    74    67    65   ar
    75    66    64   ar
    76    12    13    1
    77    12     9    1
    78    13    14   ar
    79     9     8    1
    80    83    82   ar
    81    74    75   ar
    82    74    73    1
    83    53    52    1
    84    82    81    1
    85   131   134    1
    86   131   132    1
    87    51    52   ar
    88    51    49   ar
    89    18    19    1
    90    18    16   ar
    91    52    50   ar
    92    65    64   ar
    93    49    47   ar
    94    64    63    1
    95    73    70    1
    96    81    78    1
    97   133   132    2
    98    50    48   ar
    99    14    16   ar
   100    47    48   ar
   101    47    46    1
   102    63    60    1
   103    46    43    1
   104    70    71    1
   105    70    69    1
   106    78    79    1
   107    78    77    1
   108    79    80    2
   109    71    72    2
   110    60    59    1
   111    60    61    1
   112    43    42    1
   113    43    44    1
   114    58    55    1
   115     6     5    1
   116     7     5    1
   117    61    62    2
   118    44    45    2
   119     5     2    1
   120    55    54    1
   121    55    56    1
   122   141   139    1
   123     2     3    1
   124     2     1    1
   125    56    57    2
   126   135   136    1
   127     3     4    2
   128   139   136    1
   129   139   140    1
   130   136   137    1
   131   137   138    2
