@<TRIPOS>MOLECULE
tmp/1x8rA00.pdb
 209 196 0 0 0
SMALL
GASTEIGER

@<TRIPOS>ATOM
      1  N         62.3110   18.3680   30.6090 N.3    22  LYS22      -0.1231
      2  CA        62.6270   17.6960   29.3490 C.3    22  LYS22       0.1693
      3  C         61.4150   17.7020   28.4170 C.2    22  LYS22       0.2592
      4  O         61.5680   17.9490   27.2200 O.2    22  LYS22      -0.2718
      5  CB        63.0660   16.2460   29.6210 C.3    22  LYS22       0.0285
      6  CG        63.2680   15.4000   28.3500 C.3    22  LYS22       0.0035
      7  CD        62.0750   14.4350   28.1480 C.3    22  LYS22       0.0206
      8  CE        62.1440   13.2720   29.1510 C.3    22  LYS22       0.1093
      9  NZ        60.8990   12.4320   29.2070 N.3    22  LYS22      -0.1314
     10  N         60.2250   17.4550   28.9690 N.am   23  SER23      -0.1952
     11  CA        58.9970   17.4170   28.1740 C.3    23  SER23       0.1924
     12  C         58.7430   18.7360   27.4920 C.2    23  SER23       0.2314
     13  O         58.3720   18.7880   26.3120 O.2    23  SER23      -0.2863
     14  CB        57.8040   17.0780   29.0720 C.3    23  SER23       0.2116
     15  OG        57.8850   15.7300   29.5120 O.3    23  SER23      -0.2180
     16  N         59.5560   19.8390   23.2430 N.3    27  ARG27      -0.1245
     17  CA        58.4090   20.3500   22.4970 C.3    27  ARG27       0.1563
     18  C         58.7160   21.7690   22.0070 C.2    27  ARG27       0.2260
     19  O         58.4410   22.0920   20.8520 O.2    27  ARG27      -0.2867
     20  CB        57.1700   20.4010   23.3810 C.3    27  ARG27       0.0307
     21  CG        56.4660   19.0430   23.5540 C.3    27  ARG27       0.0489
     22  CD        55.4780   19.1700   24.6980 C.3    27  ARG27       0.2205
     23  NE        54.6260   18.0150   24.9340 N.pl3  27  ARG27      -0.0865
     24  CZ        55.0080   16.8950   25.5450 C.cat  27  ARG27       0.5346
     25  NH1       54.1380   15.9100   25.7320 N.pl3  27  ARG27       0.1354
     26  NH2       56.2670   16.7550   25.9560 N.pl3  27  ARG27       0.1354
     27  N         68.6150   13.7830   26.0640 N.3    49  ASP49      -0.1239
     28  CA        67.4210   13.8580   25.2230 C.3    49  ASP49       0.1674
     29  C         67.3270   15.1660   24.4700 C.2    49  ASP49       0.2266
     30  O         66.9010   15.1850   23.3150 O.2    49  ASP49      -0.2867
     31  CB        66.1430   13.7000   26.0440 C.3    49  ASP49       0.1410
     32  CG        65.8170   12.2560   26.3840 C.2    49  ASP49       0.3668
     33  OD1       66.5420   11.3210   25.9950 O.co2  49  ASP49      -0.2456
     34  OD2       64.7670   12.0680   27.0550 O.co2  49  ASP49      -0.2456
     35  N         62.1760    9.6100   23.6310 N.3    96  GLY96      -0.1210
     36  CA        60.8460    9.4150   23.0930 C.3    96  GLY96       0.1956
     37  C         60.2820   10.7320   22.5990 C.2    96  GLY96       0.2612
     38  O         59.5770   10.7640   21.5840 O.2    96  GLY96      -0.2717
     39  N         60.6100   11.8170   23.3000 N.am   97  THR97      -0.1952
     40  CA        60.1020   13.1290   22.9370 C.3    97  THR97       0.1897
     41  C         60.7680   13.6880   21.6990 C.2    97  THR97       0.2313
     42  O         60.4370   14.7870   21.2720 O.2    97  THR97      -0.2863
     43  CB        60.2170   14.1310   24.0960 C.3    97  THR97       0.1794
     44  OG1       61.5860   14.2490   24.4920 O.3    97  THR97      -0.2208
     45  CG2       59.4160   13.6460   25.2860 C.3    97  THR97       0.0378
     46  N         59.0460   10.2560   18.7560 N.3   100  ARG100     -0.1245
     47  CA        57.6390   10.3050   18.3900 C.3   100  ARG100      0.1563
     48  C         57.2630   11.6180   17.6840 C.2   100  ARG100      0.2260
     49  O         56.6810   11.5860   16.6000 O.2   100  ARG100     -0.2867
     50  CB        56.7490   10.0460   19.6180 C.3   100  ARG100      0.0307
     51  CG        56.5650    8.5490   19.9600 C.3   100  ARG100      0.0489
     52  CD        57.8770    7.8630   20.4370 C.3   100  ARG100      0.2205
     53  NE        57.6520    6.4810   20.8810 N.pl3 100  ARG100     -0.0865
     54  CZ        57.3030    6.1280   22.1180 C.cat 100  ARG100      0.5346
     55  NH1       57.1290    4.8530   22.4190 N.pl3 100  ARG100      0.1354
     56  NH2       57.1430    7.0490   23.0600 N.pl3 100  ARG100      0.1354
     57  N         60.9290    0.1840   21.6350 N.3   124  ARG124     -0.1245
     58  CA        59.8430    1.0020   22.1940 C.3   124  ARG124      0.1563
     59  C         58.8550    1.1660   21.0480 C.2   124  ARG124      0.2260
     60  O         59.2000    1.6310   19.9590 O.2   124  ARG124     -0.2867
     61  CB        60.3560    2.3410   22.7030 C.3   124  ARG124      0.0307
     62  CG        61.2680    2.1430   23.9180 C.3   124  ARG124      0.0489
     63  CD        61.6940    3.4390   24.5880 C.3   124  ARG124      0.2205
     64  NE        60.5300    4.2080   25.0310 N.pl3 124  ARG124     -0.0865
     65  CZ        60.5920    5.4560   25.4820 C.cat 124  ARG124      0.5346
     66  NH1       59.4800    6.0890   25.8510 N.pl3 124  ARG124      0.1354
     67  NH2       61.7710    6.0670   25.5780 N.pl3 124  ARG124      0.1354
     68  N         48.5350    3.0470   24.7700 N.3   168  VAL168     -0.1231
     69  CA        49.9100    2.6870   25.1120 C.3   168  VAL168      0.1692
     70  C         50.8020    3.8900   25.4200 C.2   168  VAL168      0.2593
     71  O         51.6030    3.8440   26.3600 O.2   168  VAL168     -0.2718
     72  CB        50.5440    1.8560   23.9770 C.3   168  VAL168      0.0266
     73  CG1       52.0230    1.6370   24.2570 C.3   168  VAL168      0.0020
     74  CG2       49.8600    0.5180   23.8770 C.3   168  VAL168      0.0020
     75  N         50.7020    4.9510   24.6320 N.am  169  SER169     -0.1938
     76  CA        51.4920    6.1430   24.8900 C.3   169  SER169      0.2055
     77  C         50.7280    7.3910   24.5020 C.2   169  SER169      0.2644
     78  O         50.0300    7.3980   23.4930 O.2   169  SER169     -0.2714
     79  CB        52.8130    6.1260   24.0980 C.3   169  SER169      0.2130
     80  OG        53.4850    7.3580   24.2990 O.3   169  SER169     -0.2179
     81  N         50.8500    8.4370   25.3080 N.am  170  SER170     -0.1935
     82  CA        50.2180    9.6930   24.9540 C.3   170  SER170      0.2055
     83  C         51.0570   10.3800   23.8910 C.2   170  SER170      0.2642
     84  O         50.5850   11.2940   23.2170 O.2   170  SER170     -0.2714
     85  CB        50.1280   10.6240   26.1680 C.3   170  SER170      0.2130
     86  OG        51.4270   11.0370   26.6070 O.3   170  SER170     -0.2179
     87  N         52.3090    9.9490   23.7320 N.am  171  GLN171     -0.1976
     88  CA        53.1790   10.6110   22.7730 C.3   171  GLN171      0.1601
     89  C         52.7430   10.5100   21.3180 C.2   171  GLN171      0.2287
     90  O         53.1100   11.3490   20.4960 O.2   171  GLN171     -0.2864
     91  CB        54.6000   10.0800   22.9200 C.3   171  GLN171      0.0394
     92  CG        55.2000   10.3850   24.2770 C.3   171  GLN171      0.0908
     93  CD        56.6990   10.1450   24.3140 C.2   171  GLN171      0.2608
     94  OE1       57.3180    9.8450   23.3050 O.2   171  GLN171     -0.2717
     95  NE2       57.2880   10.2960   25.4910 N.am  171  GLN171     -0.0878
     96  N         50.3160   13.2890   21.0090 N.3   174  THR174     -0.1218
     97  CA        51.1000   14.5150   21.0700 C.3   174  THR174      0.1862
     98  C         51.7540   14.8280   19.7160 C.2   174  THR174      0.2287
     99  O         51.6950   15.9580   19.2340 O.2   174  THR174     -0.2866
    100  CB        52.1880   14.3960   22.1560 C.3   174  THR174      0.1770
    101  OG1       51.5860   14.7050   23.4160 O.3   174  THR174     -0.2211
    102  CG2       53.3590   15.3310   21.9040 C.3   174  THR174      0.0375
    103  N         48.3130    8.5540   30.2750 N.3   197  SER197     -0.1217
    104  CA        49.1980    9.7100   30.4810 C.3   197  SER197      0.1889
    105  C         48.5860   11.0110   29.9630 C.2   197  SER197      0.2288
    106  O         49.2700   11.8530   29.3830 O.2   197  SER197     -0.2866
    107  CB        50.5490    9.4610   29.7910 C.3   197  SER197      0.2089
    108  OG        51.1670    8.2940   30.3150 O.3   197  SER197     -0.2183
    109  N         50.1050   14.7510   29.7860 N.3   200  TYR200     -0.1241
    110  CA        51.1000   15.1430   28.8060 C.3   200  TYR200      0.1605
    111  C         50.4790   15.7640   27.5700 C.2   200  TYR200      0.2264
    112  O         51.1270   16.5610   26.8820 O.2   200  TYR200     -0.2867
    113  CB        52.0120   13.9530   28.4400 C.3   200  TYR200      0.0534
    114  CG        52.9090   13.5730   29.5890 C.ar  200  TYR200     -0.0201
    115  CD1       52.5390   12.5760   30.4930 C.ar  200  TYR200     -0.0009
    116  CD2       54.1390   14.2060   29.7660 C.ar  200  TYR200     -0.0009
    117  CE1       53.3700   12.2060   31.5430 C.ar  200  TYR200      0.0417
    118  CE2       54.9810   13.8400   30.8070 C.ar  200  TYR200      0.0417
    119  CZ        54.5980   12.8360   31.6950 C.ar  200  TYR200      0.1957
    120  OH        55.4650   12.4200   32.6990 O.3   200  TYR200     -0.2866
    121  N         52.6850    8.5650   35.5690 N.3   312  PRO312     -0.2102
    122  CA        53.4630    7.3380   35.4100 C.3   312  PRO312      0.1504
    123  C         54.9350    7.3600   35.7810 C.2   312  PRO312      0.2575
    124  O         55.3990    6.4060   36.3870 O.2   312  PRO312     -0.2718
    125  CB        53.2260    6.9570   33.9500 C.3   312  PRO312      0.0282
    126  CG        53.0530    8.2770   33.2730 C.3   312  PRO312      0.0208
    127  CD        52.1780    9.0450   34.2670 C.3   312  PRO312      0.0893
    128  N         55.6420    8.4360   35.4540 N.am  313  ASP313     -0.1974
    129  CA        57.0790    8.5230   35.7500 C.3   313  ASP313      0.1708
    130  C         57.3430    8.8370   37.2150 C.2   313  ASP313      0.2293
    131  O         58.1500    8.1570   37.8820 O.2   313  ASP313     -0.2864
    132  CB        57.7380    9.6100   34.8980 C.3   313  ASP313      0.1436
    133  CG        58.0100    9.1730   33.4750 C.2   313  ASP313      0.3671
    134  OD1       58.3440   10.0600   32.6580 O.co2 313  ASP313     -0.2456
    135  OD2       57.9130    7.9690   33.1580 O.co2 313  ASP313     -0.2456
    136  N         52.0920    0.8600   31.0020 N.3   336  ASN336     -0.1240
    137  CA        53.1330    1.3110   30.0970 C.3   336  ASN336      0.1653
    138  C         54.5120    1.5030   30.6970 C.2   336  ASN336      0.2266
    139  O         55.4630    1.8620   30.0000 O.2   336  ASN336     -0.2867
    140  CB        52.6370    2.4800   29.2130 C.3   336  ASN336      0.1155
    141  CG        52.6940    3.8350   29.8760 C.2   336  ASN336      0.2627
    142  OD1       53.1570    4.0040   31.0070 O.2   336  ASN336     -0.2716
    143  ND2       52.2290    4.8390   29.1360 N.am  336  ASN336     -0.0877
    144  N         56.8550   -0.5360   28.6180 N.3   339  VAL339     -0.1231
    145  CA        57.3400   -0.2150   27.2650 C.3   339  VAL339      0.1692
    146  C         58.2020    1.0360   27.1360 C.2   339  VAL339      0.2592
    147  O         58.2760    1.6700   26.0690 O.2   339  VAL339     -0.2718
    148  CB        56.1410   -0.1380   26.2690 C.3   339  VAL339      0.0266
    149  CG1       55.4090   -1.4540   26.2590 C.3   339  VAL339      0.0020
    150  CG2       55.1630    0.9630   26.6580 C.3   339  VAL339      0.0020
    151  N         58.8800    1.3890   28.2170 N.am  340  LYS340     -0.1966
    152  CA        59.7300    2.5660   28.2070 C.3   340  LYS340      0.1728
    153  C         61.2320    2.2370   28.1690 C.2   340  LYS340      0.2616
    154  O         61.6060    1.2890   27.4760 O.2   340  LYS340     -0.2715
    155  CB        59.2990    3.4600   29.3720 C.3   340  LYS340      0.0311
    156  CG        57.9670    4.1010   29.0300 C.3   340  LYS340      0.0038
    157  CD        57.3080    4.8130   30.1800 C.3   340  LYS340      0.0206
    158  CE        56.0540    5.5070   29.6590 C.3   340  LYS340      0.1093
    159  NZ        55.3650    6.3080   30.7060 N.3   340  LYS340     -0.1314
    160  N         62.0910    2.9900   28.8660 N.am  341  GLU341     -0.1977
    161  CA        63.5430    2.7290   28.8270 C.3   341  GLU341      0.1602
    162  C         63.8910    1.2800   29.1040 C.2   341  GLU341      0.2287
    163  O         64.8880    0.7700   28.6070 O.2   341  GLU341     -0.2864
    164  CB        64.2810    3.6420   29.8000 C.3   341  GLU341      0.0415
    165  CG        64.4450    5.0830   29.3130 C.3   341  GLU341      0.1163
    166  CD        63.1330    5.7510   28.9210 C.2   341  GLU341      0.3649
    167  OE1       62.0880    5.4570   29.5450 O.co2 341  GLU341     -0.2457
    168  OE2       63.1500    6.5850   27.9860 O.co2 341  GLU341     -0.2457
    169  N         59.8380   -1.3370   33.2140 N.3   344  ARG344     -0.1245
    170  CA        59.9980   -0.8380   34.5730 C.3   344  ARG344      0.1563
    171  C         59.2710   -1.6150   35.6460 C.2   344  ARG344      0.2260
    172  O         59.6490   -1.5450   36.8050 O.2   344  ARG344     -0.2867
    173  CB        59.6210    0.6320   34.6360 C.3   344  ARG344      0.0307
    174  CG        60.5970    1.5200   33.8590 C.3   344  ARG344      0.0489
    175  CD        60.0090    2.8980   33.5740 C.3   344  ARG344      0.2205
    176  NE        61.0800    3.8490   33.2530 N.pl3 344  ARG344     -0.0865
    177  CZ        60.8910    5.0960   32.8310 C.cat 344  ARG344      0.5346
    178  NH1       61.9370    5.8780   32.5850 N.pl3 344  ARG344      0.1354
    179  NH2       59.6630    5.5790   32.6370 N.pl3 344  ARG344      0.1354
    180  N         67.4410    6.1280   33.3220 N.3   385  HIS385     -0.1226
    181  CA        67.6730    7.2430   34.2370 C.3   385  HIS385      0.1752
    182  C         66.8250    7.1970   35.4950 C.2   385  HIS385      0.2595
    183  O         67.3180    7.4830   36.5920 O.2   385  HIS385     -0.2718
    184  CB        67.4450    8.5810   33.4950 C.3   385  HIS385      0.0759
    185  CG        66.0660    8.7590   32.9140 C.ar  385  HIS385      0.0818
    186  ND1       65.4680    9.9980   32.8390 N.ar  385  HIS385     -0.2268
    187  CD2       65.2090    7.8910   32.3210 C.ar  385  HIS385      0.1154
    188  CE1       64.2960    9.8850   32.2330 C.ar  385  HIS385      0.1986
    189  NE2       64.1160    8.6200   31.9060 N.ar  385  HIS385     -0.2212
    190  N         65.5620    6.8010   35.3530 N.am  386  ARG386     -0.1980
    191  CA        64.7060    6.7970   36.5380 C.3   386  ARG386      0.1597
    192  C         64.9810    5.6690   37.5130 C.2   386  ARG386      0.2287
    193  O         64.7110    5.8140   38.6860 O.2   386  ARG386     -0.2864
    194  CB        63.2370    6.8400   36.1360 C.3   386  ARG386      0.0334
    195  CG        62.9340    8.1000   35.3460 C.3   386  ARG386      0.0492
    196  CD        61.4470    8.4680   35.3740 C.3   386  ARG386      0.2205
    197  NE        61.2720    9.5460   34.4050 N.pl3 386  ARG386     -0.0865
    198  CZ        61.7090   10.7940   34.5400 C.cat 386  ARG386      0.5346
    199  NH1       61.4970   11.6480   33.5370 N.pl3 386  ARG386      0.1354
    200  NH2       62.2930   11.2170   35.6630 N.pl3 386  ARG386      0.1354
    201  N         70.1420   11.2030   30.8140 N.3   411  LYS411     -0.1245
    202  CA        69.0750   11.2660   29.8260 C.3   411  LYS411      0.1561
    203  C         68.2530   12.5290   30.0840 C.2   411  LYS411      0.2260
    204  O         67.8540   13.2270   29.1340 O.2   411  LYS411     -0.2867
    205  CB        68.1730   10.0380   29.9260 C.3   411  LYS411      0.0271
    206  CG        67.2430    9.8890   28.7360 C.3   411  LYS411      0.0035
    207  CD        66.4180    8.6250   28.8310 C.3   411  LYS411      0.0206
    208  CE        65.4470    8.4680   27.6670 C.3   411  LYS411      0.1093
    209  NZ        64.2310    9.3380   27.7980 N.3   411  LYS411     -0.1314
@<TRIPOS>BOND
     1    49    48    2
     2    48    47    1
     3    47    46    1
     4    47    50    1
     5    99    98    2
     6    50    51    1
     7    98    97    1
     8    60    59    2
     9    51    52    1
    10    52    53    1
    11    90    89    2
    12    19    18    2
    13    53    54    2
    14    96    97    1
    15    59    58    1
    16    97   100    1
    17    42    41    2
    18    89    88    1
    19    38    37    2
    20    57    58    1
    21    41    40    1
    22   102   100    1
    23    18    17    1
    24    54    55    1
    25    54    56    1
    26   100   101    1
    27    58    61    1
    28    17    16    1
    29    17    20    1
    30    37    36    1
    31    37    39   am
    32    61    62    1
    33    88    91    1
    34    88    87    1
    35    91    92    1
    36    40    39    1
    37    40    43    1
    38    36    35    1
    39    84    83    2
    40    94    93    2
    41    30    29    2
    42    20    21    1
    43    78    77    2
    44    21    22    1
    45    87    83   am
    46    74    72    1
    47    83    82    1
    48    62    63    1
    49    72    73    1
    50    72    69    1
    51    43    44    1
    52    43    45    1
    53    79    80    1
    54    79    76    1
    55    92    93    1
    56    93    95   am
    57    29    28    1
    58    77    76    1
    59    77    81   am
    60    63    64    1
    61    75    76    1
    62    75    70   am
    63    22    23    1
    64    68    69    1
    65    23    24    2
    66    82    81    1
    67    82    85    1
    68    64    65    2
    69    69    70    1
    70    28    31    1
    71    28    27    1
    72    70    71    2
    73    65    67    1
    74    65    66    1
    75    24    25    1
    76    24    26    1
    77    33    32   ar
    78    31    32    1
    79   147   146    2
    80    85    86    1
    81   149   148    1
    82   148   150    1
    83   148   145    1
    84    13    12    2
    85    32    34   ar
    86   112   111    2
    87   146   145    1
    88   146   151   am
    89     4     3    2
    90   145   144    1
    91   154   153    2
    92    12    11    1
    93   111   110    1
    94   208   209    1
    95   208   207    1
    96   168   166   ar
    97     7     6    1
    98     7     8    1
    99   153   152    1
   100   153   160   am
   101    11    10    1
   102    11    14    1
   103   152   151    1
   104   152   155    1
   105     6     5    1
   106     3    10   am
   107     3     2    1
   108   113   110    1
   109   113   114    1
   110   163   162    2
   111   206   207    1
   112   206   205    1
   113   110   109    1
   114   161   160    1
   115   161   162    1
   116   161   164    1
   117   166   165    1
   118   166   167   ar
   119   156   155    1
   120   156   157    1
   121    14    15    1
   122   204   203    2
   123   143   141   am
   124     8     9    1
   125   140   141    1
   126   140   137    1
   127   165   164    1
   128     2     5    1
   129     2     1    1
   130   106   105    2
   131   114   116   ar
   132   114   115   ar
   133   158   157    1
   134   158   159    1
   135   116   118   ar
   136   107   108    1
   137   107   104    1
   138   202   205    1
   139   202   203    1
   140   202   201    1
   141   141   142    2
   142   105   104    1
   143   139   138    2
   144   137   138    1
   145   137   136    1
   146   103   104    1
   147   115   117   ar
   148   118   119   ar
   149   117   119   ar
   150   119   120    1
   151   189   188   ar
   152   189   187   ar
   153   188   186   ar
   154   187   185   ar
   155   178   177    1
   156   179   177    1
   157   134   133   ar
   158   177   176    2
   159   186   185   ar
   160   185   184    1
   161   135   133   ar
   162   169   170    1
   163   176   175    1
   164   126   125    1
   165   126   127    1
   166   180   181    1
   167   133   132    1
   168   184   181    1
   169   199   198    1
   170   175   174    1
   171   174   173    1
   172   125   122    1
   173   181   182    1
   174   127   121    1
   175   197   198    2
   176   197   196    1
   177   198   200    1
   178   170   173    1
   179   170   171    1
   180   132   129    1
   181   195   196    1
   182   195   194    1
   183   190   182   am
   184   190   191    1
   185   122   121    1
   186   122   123    1
   187   128   129    1
   188   128   123   am
   189   182   183    2
   190   171   172    2
   191   129   130    1
   192   123   124    2
   193   194   191    1
   194   191   192    1
   195   130   131    2
   196   192   193    2
