@<TRIPOS>MOLECULE
tmp/1x8uB00.pdb
 200 193 0 0 0
SMALL
GASTEIGER

@<TRIPOS>ATOM
      1  N         52.6200  102.1670   45.3750 N.3    35  ALA35      -0.1231
      2  CA        52.1520  103.5120   45.0860 C.3    35  ALA35       0.1694
      3  C         50.7480  103.5240   44.4290 C.2    35  ALA35       0.2591
      4  O         50.2180  104.6010   44.1480 O.2    35  ALA35      -0.2718
      5  CB        53.1410  104.2550   44.1620 C.3    35  ALA35       0.0304
      6  N         50.1430  102.3670   44.1360 N.am   36  ILE36      -0.1980
      7  CA        48.7930  102.3550   43.5550 C.3    36  ILE36       0.1595
      8  C         47.8430  102.1370   44.7280 C.2    36  ILE36       0.2287
      9  O         48.2180  101.4650   45.7080 O.2    36  ILE36      -0.2864
     10  CB        48.5480  101.1720   42.5470 C.3    36  ILE36       0.0276
     11  CG1       49.6370  101.1500   41.4630 C.3    36  ILE36       0.0022
     12  CG2       47.1340  101.2950   41.9190 C.3    36  ILE36       0.0022
     13  CD1       49.6220  102.3310   40.5090 C.3    36  ILE36       0.0001
     14  N         43.9450  102.6790   30.4070 N.3    44  TYR44      -0.1241
     15  CA        44.8850  103.4240   29.5920 C.3    44  TYR44       0.1605
     16  C         45.6640  102.3530   28.8400 C.2    44  TYR44       0.2264
     17  O         45.5890  101.1640   29.2090 O.2    44  TYR44      -0.2867
     18  CB        45.7940  104.3160   30.4500 C.3    44  TYR44       0.0534
     19  CG        46.8510  103.6420   31.3400 C.ar   44  TYR44      -0.0201
     20  CD1       46.5380  103.1780   32.6200 C.ar   44  TYR44      -0.0009
     21  CD2       48.2060  103.5390   30.9160 C.ar   44  TYR44      -0.0009
     22  CE1       47.5430  102.6350   33.4640 C.ar   44  TYR44       0.0417
     23  CE2       49.2130  103.0000   31.7370 C.ar   44  TYR44       0.0417
     24  CZ        48.8820  102.5460   33.0170 C.ar   44  TYR44       0.1957
     25  OH        49.8790  101.9910   33.8240 O.3    44  TYR44      -0.2866
     26  N         49.4020  101.1880   26.5490 N.3    46  THR46      -0.1218
     27  CA        50.8150  101.4690   26.4220 C.3    46  THR46       0.1862
     28  C         51.3250  100.7460   25.2100 C.2    46  THR46       0.2287
     29  O         51.1530   99.5390   25.0710 O.2    46  THR46      -0.2866
     30  CB        51.5480  101.0340   27.7180 C.3    46  THR46       0.1770
     31  OG1       50.9720  101.7450   28.8140 O.3    46  THR46      -0.2211
     32  CG2       53.0550  101.3470   27.6540 C.3    46  THR46       0.0375
     33  N         58.3760  103.8890   23.9750 N.3    58  VAL58      -0.1245
     34  CA        57.1890  103.5630   24.7430 C.3    58  VAL58       0.1561
     35  C         56.2740  104.7340   24.9230 C.2    58  VAL58       0.2260
     36  O         56.6440  105.7240   25.5220 O.2    58  VAL58      -0.2867
     37  CB        57.5960  103.0410   26.1750 C.3    58  VAL58       0.0252
     38  CG1       56.3560  102.5800   26.9560 C.3    58  VAL58       0.0019
     39  CG2       58.6730  101.9130   26.0590 C.3    58  VAL58       0.0019
     40  N         52.4600  105.9680   26.2940 N.3    60  SER60      -0.1217
     41  CA        51.2560  105.6410   27.0500 C.3    60  SER60       0.1889
     42  C         50.1780  106.6490   26.7510 C.2    60  SER60       0.2288
     43  O         50.4290  107.8500   26.7950 O.2    60  SER60      -0.2866
     44  CB        51.5270  105.6170   28.5750 C.3    60  SER60       0.2089
     45  OG        52.1570  104.4000   28.9420 O.3    60  SER60      -0.2183
     46  N         46.3660  108.0480   27.7660 N.3    62  LEU62      -0.1245
     47  CA        45.3090  108.0810   28.7570 C.3    62  LEU62       0.1561
     48  C         44.3190  109.1810   28.3790 C.2    62  LEU62       0.2260
     49  O         44.6760  110.1890   27.7520 O.2    62  LEU62      -0.2867
     50  CB        45.8130  108.4300   30.1680 C.3    62  LEU62       0.0270
     51  CG        47.2650  108.2410   30.6170 C.3    62  LEU62       0.0019
     52  CD1       47.3300  108.5870   32.0980 C.3    62  LEU62       0.0001
     53  CD2       47.7690  106.7900   30.3710 C.3    62  LEU62       0.0001
     54  N         42.2090  112.0740   29.8220 N.3    64  ARG64      -0.1245
     55  CA        42.1750  112.9270   31.0290 C.3    64  ARG64       0.1563
     56  C         41.6590  114.3220   30.7070 C.2    64  ARG64       0.2260
     57  O         42.0940  114.9150   29.7240 O.2    64  ARG64      -0.2867
     58  CB        43.5780  113.0400   31.6290 C.3    64  ARG64       0.0307
     59  CG        43.6190  113.7610   32.9470 C.3    64  ARG64       0.0489
     60  CD        44.9610  113.6080   33.6490 C.3    64  ARG64       0.2205
     61  NE        45.3560  112.2130   33.8390 N.pl3  64  ARG64      -0.0865
     62  CZ        44.6680  111.3040   34.5320 C.cat  64  ARG64       0.5346
     63  NH1       43.5090  111.6250   35.1050 N.pl3  64  ARG64       0.1354
     64  NH2       45.1370  110.0630   34.6400 N.pl3  64  ARG64       0.1354
     65  N         52.3350  110.0760   26.9540 N.3    71  TRP71      -0.1241
     66  CA        53.5250  110.0110   27.8020 C.3    71  TRP71       0.1605
     67  C         54.4600  109.0850   27.0360 C.2    71  TRP71       0.2264
     68  O         54.1010  107.9350   26.7330 O.2    71  TRP71      -0.2867
     69  CB        53.1770  109.3720   29.1450 C.3    71  TRP71       0.0550
     70  CG        53.0330  110.3250   30.2950 C.ar   71  TRP71       0.0003
     71  CD1       54.0340  110.7800   31.1430 C.ar   71  TRP71       0.0946
     72  CD2       51.8250  110.8970   30.7790 C.ar   71  TRP71       0.0152
     73  NE1       53.5000  111.5850   32.1290 N.ar   71  TRP71      -0.2442
     74  CE2       52.1540  111.6770   31.9240 C.ar   71  TRP71       0.0810
     75  CE3       50.5060  110.8350   30.3590 C.ar   71  TRP71       0.0012
     76  CZ2       51.1920  112.3810   32.6400 C.ar   71  TRP71       0.0191
     77  CZ3       49.5470  111.5490   31.0770 C.ar   71  TRP71       0.0001
     78  CH2       49.8950  112.3060   32.1970 C.ar   71  TRP71       0.0015
     79  N         58.6190  107.5390   26.6300 N.3    73  ARG73      -0.1245
     80  CA        59.8990  107.2620   27.2630 C.3    73  ARG73       0.1563
     81  C         60.5780  106.2670   26.3620 C.2    73  ARG73       0.2260
     82  O         60.0180  105.8520   25.3510 O.2    73  ARG73      -0.2867
     83  CB        59.6950  106.5760   28.5990 C.3    73  ARG73       0.0307
     84  CG        58.8490  107.3250   29.5270 C.3    73  ARG73       0.0489
     85  CD        59.5980  108.5230   29.9510 C.3    73  ARG73       0.2205
     86  NE        58.6460  109.5410   30.3660 N.pl3  73  ARG73      -0.0865
     87  CZ        58.7890  110.2850   31.4530 C.cat  73  ARG73       0.5346
     88  NH1       59.8570  110.1260   32.2290 N.pl3  73  ARG73       0.1354
     89  NH2       57.8460  111.1490   31.7910 N.pl3  73  ARG73       0.1354
     90  N         62.8050  102.4970   26.5480 N.3    75  PHE75      -0.1241
     91  CA        63.2440  101.4020   27.3600 C.3    75  PHE75       0.1605
     92  C         64.3690  100.7380   26.6060 C.2    75  PHE75       0.2264
     93  O         64.2010  100.2430   25.4770 O.2    75  PHE75      -0.2867
     94  CB        62.1440  100.3540   27.5620 C.3    75  PHE75       0.0534
     95  CG        61.0390  100.7640   28.5130 C.ar   75  PHE75      -0.0203
     96  CD1       60.0090   99.8820   28.8010 C.ar   75  PHE75      -0.0042
     97  CD2       61.0300  101.9870   29.1340 C.ar   75  PHE75      -0.0042
     98  CE1       58.9800  100.2190   29.6950 C.ar   75  PHE75      -0.0003
     99  CE2       59.9970  102.3180   30.0230 C.ar   75  PHE75      -0.0003
    100  CZ        58.9780  101.4180   30.2920 C.ar   75  PHE75      -0.0000
    101  N         65.3750  110.8990   39.6490 N.3    95  LEU95      -0.1245
    102  CA        65.3330  109.5090   39.2990 C.3    95  LEU95       0.1561
    103  C         66.7240  108.9080   39.3430 C.2    95  LEU95       0.2260
    104  O         67.5680  109.2150   38.4720 O.2    95  LEU95      -0.2867
    105  CB        64.7490  109.3560   37.9140 C.3    95  LEU95       0.0270
    106  CG        64.2570  107.9530   37.5850 C.3    95  LEU95       0.0019
    107  CD1       63.0570  107.6280   38.5010 C.3    95  LEU95       0.0001
    108  CD2       63.8590  107.9200   36.1080 C.3    95  LEU95       0.0001
    109  N         66.2560  102.6360   37.7110 N.3    98  TYR98      -0.1241
    110  CA        65.0370  102.1750   37.0420 C.3    98  TYR98       0.1605
    111  C         65.2480  100.8450   36.3630 C.2    98  TYR98       0.2264
    112  O         66.2680  100.6210   35.6250 O.2    98  TYR98      -0.2867
    113  CB        64.6120  103.1880   36.0040 C.3    98  TYR98       0.0534
    114  CG        63.1890  103.0710   35.5720 C.ar   98  TYR98      -0.0201
    115  CD1       62.8110  102.1790   34.5650 C.ar   98  TYR98      -0.0009
    116  CD2       62.2110  103.9230   36.1200 C.ar   98  TYR98      -0.0009
    117  CE1       61.4900  102.1450   34.1040 C.ar   98  TYR98       0.0417
    118  CE2       60.8910  103.8980   35.6670 C.ar   98  TYR98       0.0417
    119  CZ        60.5450  103.0070   34.6670 C.ar   98  TYR98       0.1957
    120  OH        59.2400  102.9400   34.2650 O.3    98  TYR98      -0.2866
    121  N         57.8150   96.7650   37.3840 N.3   115  PHE115     -0.1227
    122  CA        58.5560   97.9950   37.2600 C.3   115  PHE115      0.1736
    123  C         59.1120   98.4620   38.6180 C.2   115  PHE115      0.2595
    124  O         58.3680   98.5820   39.6140 O.2   115  PHE115     -0.2718
    125  CB        57.6290   99.0640   36.7180 C.3   115  PHE115      0.0547
    126  CG        57.0930   98.7570   35.3630 C.ar  115  PHE115     -0.0202
    127  CD1       57.8820   98.9650   34.2220 C.ar  115  PHE115     -0.0042
    128  CD2       55.7790   98.3140   35.2040 C.ar  115  PHE115     -0.0042
    129  CE1       57.3630   98.7440   32.9480 C.ar  115  PHE115     -0.0003
    130  CE2       55.2400   98.0890   33.9160 C.ar  115  PHE115     -0.0003
    131  CZ        56.0400   98.3090   32.7970 C.ar  115  PHE115     -0.0000
    132  N         60.4090   98.7340   38.6650 N.am  116  LYS116     -0.1966
    133  CA        60.9730   99.2570   39.8970 C.3   116  LYS116      0.1728
    134  C         61.8140  100.4760   39.5960 C.2   116  LYS116      0.2616
    135  O         62.4970  100.5470   38.5310 O.2   116  LYS116     -0.2715
    136  CB        61.8230   98.2330   40.6440 C.3   116  LYS116      0.0311
    137  CG        62.3700   98.8250   41.9650 C.3   116  LYS116      0.0038
    138  CD        63.1810   97.8480   42.8100 C.3   116  LYS116      0.0206
    139  CE        64.4830   97.3890   42.1770 C.3   116  LYS116      0.1093
    140  NZ        65.1790   96.4040   43.0930 N.3   116  LYS116     -0.1314
    141  N         61.7570  101.4300   40.5340 N.am  117  LYS117     -0.1977
    142  CA        62.5020  102.6680   40.4270 C.3   117  LYS117      0.1596
    143  C         62.7720  103.3610   41.7690 C.2   117  LYS117      0.2287
    144  O         62.0220  103.2090   42.7630 O.2   117  LYS117     -0.2864
    145  CB        61.7420  103.6510   39.5470 C.3   117  LYS117      0.0298
    146  CG        60.5600  104.2620   40.2960 C.3   117  LYS117      0.0038
    147  CD        59.9590  105.4210   39.5450 C.3   117  LYS117      0.0206
    148  CE        58.5000  105.5980   39.9320 C.3   117  LYS117      0.1093
    149  NZ        57.8090  106.5930   39.0360 N.3   117  LYS117     -0.1314
    150  N         59.8690  102.6670   44.7640 N.3   124  TYR124     -0.1227
    151  CA        58.5510  102.2920   44.2440 C.3   124  TYR124      0.1736
    152  C         58.5670  101.0820   43.3130 C.2   124  TYR124      0.2595
    153  O         59.5590  100.8010   42.6090 O.2   124  TYR124     -0.2718
    154  CB        57.9180  103.4250   43.4590 C.3   124  TYR124      0.0548
    155  CG        57.8150  104.7200   44.1860 C.ar  124  TYR124     -0.0200
    156  CD1       58.8750  105.6280   44.1690 C.ar  124  TYR124     -0.0009
    157  CD2       56.6730  105.0370   44.9340 C.ar  124  TYR124     -0.0009
    158  CE1       58.8060  106.8340   44.8980 C.ar  124  TYR124      0.0417
    159  CE2       56.5900  106.2240   45.6620 C.ar  124  TYR124      0.0417
    160  CZ        57.6640  107.1190   45.6510 C.ar  124  TYR124      0.1957
    161  OH        57.6650  108.2500   46.4510 O.3   124  TYR124     -0.2866
    162  N         57.4440  100.3830   43.2790 N.am  125  PHE125     -0.1962
    163  CA        57.3130   99.2580   42.3660 C.3   125  PHE125      0.1771
    164  C         55.8600   99.1370   41.9750 C.2   125  PHE125      0.2619
    165  O         54.9780   99.6380   42.6800 O.2   125  PHE125     -0.2715
    166  CB        57.8230   97.9160   42.9580 C.3   125  PHE125      0.0574
    167  CG        56.9370   97.3090   44.0610 C.ar  125  PHE125     -0.0200
    168  CD1       57.0320   97.7570   45.3990 C.ar  125  PHE125     -0.0042
    169  CD2       56.0850   96.2360   43.7810 C.ar  125  PHE125     -0.0042
    170  CE1       56.3180   97.1550   46.4150 C.ar  125  PHE125     -0.0003
    171  CE2       55.3660   95.6240   44.7930 C.ar  125  PHE125     -0.0003
    172  CZ        55.4760   96.0740   46.1150 C.ar  125  PHE125     -0.0000
    173  N         55.6290   98.5070   40.8210 N.am  126  LYS126     -0.1977
    174  CA        54.2950   98.2680   40.3150 C.3   126  LYS126      0.1596
    175  C         54.3380   97.1020   39.3420 C.2   126  LYS126      0.2287
    176  O         55.4200   96.6810   38.8680 O.2   126  LYS126     -0.2864
    177  CB        53.7450   99.5180   39.6390 C.3   126  LYS126      0.0298
    178  CG        53.8970   99.5680   38.1520 C.3   126  LYS126      0.0038
    179  CD        53.4140  100.9060   37.5690 C.3   126  LYS126      0.0206
    180  CE        53.6930  100.9310   36.0550 C.3   126  LYS126      0.1093
    181  NZ        53.3630  102.2340   35.4640 N.3   126  LYS126     -0.1314
    182  N         51.8750   95.6980   36.0220 N.3   128  THR128     -0.1218
    183  CA        50.7420   95.9270   35.1410 C.3   128  THR128      0.1862
    184  C         50.4140   94.5150   34.6110 C.2   128  THR128      0.2287
    185  O         51.3220   93.6980   34.4040 O.2   128  THR128     -0.2866
    186  CB        51.0830   96.7850   33.9010 C.3   128  THR128      0.1770
    187  OG1       52.1750   96.1610   33.1780 O.3   128  THR128     -0.2211
    188  CG2       51.4060   98.2210   34.2860 C.3   128  THR128      0.0375
    189  N         48.9840   93.0750   31.4190 N.3   130  TYR130     -0.1241
    190  CA        48.6890   93.5740   30.0670 C.3   130  TYR130      0.1605
    191  C         47.7800   92.6580   29.2810 C.2   130  TYR130      0.2264
    192  O         47.9280   91.4390   29.3350 O.2   130  TYR130     -0.2867
    193  CB        49.9560   93.7490   29.2350 C.3   130  TYR130      0.0534
    194  CG        50.8220   94.9540   29.5420 C.ar  130  TYR130     -0.0201
    195  CD1       50.2760   96.1450   30.0930 C.ar  130  TYR130     -0.0009
    196  CD2       52.1730   94.9390   29.2150 C.ar  130  TYR130     -0.0009
    197  CE1       51.0560   97.2700   30.3000 C.ar  130  TYR130      0.0417
    198  CE2       52.9570   96.0580   29.4110 C.ar  130  TYR130      0.0417
    199  CZ        52.3980   97.2120   29.9500 C.ar  130  TYR130      0.1957
    200  OH        53.2150   98.2910   30.1120 O.3   130  TYR130     -0.2866
@<TRIPOS>BOND
     1    33    34    1
     2    34    35    1
     3    34    37    1
     4    35    36    2
     5    29    28    2
     6    28    27    1
     7    82    81    2
     8    93    92    2
     9    39    37    1
    10    37    38    1
    11    40    41    1
    12    81    80    1
    13    27    26    1
    14    27    30    1
    15    90    91    1
    16    92    91    1
    17    79    80    1
    18    68    67    2
    19    42    43    2
    20    42    41    1
    21    65    66    1
    22    67    66    1
    23    41    44    1
    24    80    83    1
    25    91    94    1
    26    94    95    1
    27    32    30    1
    28    30    31    1
    29    49    48    2
    30    46    47    1
    31    66    69    1
    32    48    47    1
    33    95    96   ar
    34    95    97   ar
    35    44    45    1
    36    83    84    1
    37    47    50    1
    38    96    98   ar
    39    16    17    2
    40    16    15    1
    41    97    99   ar
    42    69    70    1
    43   196   198   ar
    44   196   194   ar
    45   193   194    1
    46   193   190    1
    47   191   192    2
    48   191   190    1
    49   198   199   ar
    50    84    85    1
    51   194   195   ar
    52    15    14    1
    53    15    18    1
    54    98   100   ar
    55    57    56    2
    56    54    55    1
    57   199   200    1
    58   199   197   ar
    59    85    86    1
    60    99   100   ar
    61   190   189    1
    62   195   197   ar
    63    50    51    1
    64    70    72   ar
    65    70    71   ar
    66    75    72   ar
    67    75    77   ar
    68    86    87    2
    69    53    51    1
    70    18    19    1
    71    51    52    1
    72    56    55    1
    73    72    74   ar
    74    21    19   ar
    75    21    23   ar
    76    55    58    1
    77    77    78   ar
    78    71    73   ar
    79    19    20   ar
    80    87    89    1
    81    87    88    1
    82    58    59    1
    83    23    24   ar
    84    74    73   ar
    85    74    76   ar
    86    78    76   ar
    87    20    22   ar
    88   131   129   ar
    89   131   130   ar
    90    59    60    1
    91   129   127   ar
    92    24    22   ar
    93    24    25    1
    94   187   186    1
    95    60    61    1
    96    61    62    2
    97   186   188    1
    98   186   183    1
    99   130   128   ar
   100   117   115   ar
   101   117   119   ar
   102   127   126   ar
   103   120   119    1
   104   185   184    2
   105    62    64    1
   106    62    63    1
   107   115   114   ar
   108   184   183    1
   109   119   118   ar
   110   183   182    1
   111   128   126   ar
   112   126   125    1
   113   181   180    1
   114   114   113    1
   115   114   116   ar
   116   112   111    2
   117   118   116   ar
   118   113   110    1
   119   180   179    1
   120   108   106    1
   121   111   110    1
   122   125   122    1
   123   110   109    1
   124   122   121    1
   125   122   123    1
   126   179   178    1
   127   106   105    1
   128   106   107    1
   129   105   102    1
   130   178   177    1
   131   104   103    2
   132   135   134    2
   133   123   132   am
   134   123   124    2
   135   132   133    1
   136   176   175    2
   137   149   148    1
   138   102   103    1
   139   102   101    1
   140   175   174    1
   141   147   148    1
   142   147   146    1
   143   145   146    1
   144   145   142    1
   145   134   133    1
   146   134   141   am
   147   177   174    1
   148   133   136    1
   149   174   173    1
   150   142   141    1
   151   142   143    1
   152    13    11    1
   153   136   137    1
   154   173   164   am
   155    11    10    1
   156   143   144    2
   157    12    10    1
   158   137   138    1
   159   164   163    1
   160   164   165    2
   161   139   138    1
   162   139   140    1
   163   163   166    1
   164   163   162    1
   165    10     7    1
   166   153   152    2
   167   166   167    1
   168   162   152   am
   169   152   151    1
   170   154   155    1
   171   154   151    1
   172     7     6    1
   173     7     8    1
   174   169   167   ar
   175   169   171   ar
   176   167   168   ar
   177     6     3   am
   178     4     3    2
   179     5     2    1
   180   156   155   ar
   181   156   158   ar
   182   155   157   ar
   183   151   150    1
   184     3     2    1
   185     8     9    2
   186   171   172   ar
   187   158   160   ar
   188   157   159   ar
   189     2     1    1
   190   168   170   ar
   191   160   159   ar
   192   160   161    1
   193   172   170   ar
