@<TRIPOS>MOLECULE
tmp/1x8vA01.pdb
 158 154 0 0 0
SMALL
GASTEIGER

@<TRIPOS>ATOM
      1  N        -22.8660   -7.0200   76.9280 N.3    71  GLN71      -0.1245
      2  CA       -21.9640   -6.1910   76.1380 C.3    71  GLN71       0.1566
      3  C        -22.4130   -4.7280   76.1540 C.2    71  GLN71       0.2260
      4  O        -21.6130   -3.8160   75.9330 O.2    71  GLN71      -0.2867
      5  CB       -21.9460   -6.6960   74.6910 C.3    71  GLN71       0.0367
      6  CG       -21.0240   -5.9200   73.7700 C.3    71  GLN71       0.0905
      7  CD       -21.4000   -6.0790   72.3100 C.2    71  GLN71       0.2608
      8  OE1      -22.5260   -5.7780   71.9160 O.2    71  GLN71      -0.2717
      9  NE2      -20.4580   -6.5480   71.4980 N.am   71  GLN71      -0.0878
     10  N        -18.4150   -0.9030   76.8160 N.3    75  TYR75      -0.1241
     11  CA       -17.5710   -0.0080   76.0250 C.3    75  TYR75       0.1605
     12  C        -17.9830    1.4610   76.1760 C.2    75  TYR75       0.2264
     13  O        -18.4480    2.0880   75.2210 O.2    75  TYR75      -0.2867
     14  CB       -17.6450   -0.4180   74.5500 C.3    75  TYR75       0.0534
     15  CG       -17.2370   -1.8530   74.2670 C.ar   75  TYR75      -0.0201
     16  CD1      -15.9250   -2.2840   74.4770 C.ar   75  TYR75      -0.0009
     17  CD2      -18.1530   -2.7710   73.7480 C.ar   75  TYR75      -0.0009
     18  CE1      -15.5340   -3.5970   74.1670 C.ar   75  TYR75       0.0417
     19  CE2      -17.7700   -4.0800   73.4350 C.ar   75  TYR75       0.0417
     20  CZ       -16.4580   -4.4830   73.6440 C.ar   75  TYR75       0.1957
     21  OH       -16.0630   -5.7600   73.2920 O.3    75  TYR75      -0.2866
     22  N        -16.3890    4.2450   76.1840 N.3    77  PHE77      -0.1227
     23  CA       -15.7450    5.2250   75.3160 C.3    77  PHE77       0.1736
     24  C        -16.5510    5.5140   74.0500 C.2    77  PHE77       0.2595
     25  O        -16.2760    6.4840   73.3440 O.2    77  PHE77      -0.2718
     26  CB       -14.3340    4.7510   74.9490 C.3    77  PHE77       0.0547
     27  CG       -14.2830    3.3480   74.4020 C.ar   77  PHE77      -0.0202
     28  CD1      -14.4640    3.1050   73.0450 C.ar   77  PHE77      -0.0042
     29  CD2      -14.0640    2.2660   75.2520 C.ar   77  PHE77      -0.0042
     30  CE1      -14.4270    1.8040   72.5410 C.ar   77  PHE77      -0.0003
     31  CE2      -14.0270    0.9620   74.7610 C.ar   77  PHE77      -0.0003
     32  CZ       -14.2090    0.7310   73.4010 C.ar   77  PHE77      -0.0000
     33  N        -17.5510    4.6840   73.7700 N.am   78  MET78      -0.1979
     34  CA       -18.3790    4.8890   72.5820 C.3    78  MET78       0.1605
     35  C        -19.5810    5.7980   72.8340 C.2    78  MET78       0.2287
     36  O        -20.1380    6.3630   71.8970 O.2    78  MET78      -0.2864
     37  CB       -18.8960    3.5520   72.0350 C.3    78  MET78       0.0413
     38  CG       -17.8320    2.6070   71.5070 C.3    78  MET78       0.0598
     39  SD       -16.7180    3.3780   70.3310 S.3    78  MET78      -0.1393
     40  CE       -17.8850    3.8790   69.0360 C.3    78  MET78       0.0692
     41  N        -21.1530    8.3080   69.7570 N.3    82  PHE82      -0.1241
     42  CA       -22.4450    8.1680   69.0970 C.3    82  PHE82       0.1605
     43  C        -23.3680    9.3040   69.5300 C.2    82  PHE82       0.2264
     44  O        -24.1870    9.7890   68.7470 O.2    82  PHE82      -0.2867
     45  CB       -23.0860    6.8230   69.4460 C.3    82  PHE82       0.0534
     46  CG       -22.3320    5.6300   68.9170 C.ar   82  PHE82      -0.0203
     47  CD1      -21.4590    5.7570   67.8390 C.ar   82  PHE82      -0.0042
     48  CD2      -22.5280    4.3700   69.4730 C.ar   82  PHE82      -0.0042
     49  CE1      -20.7940    4.6470   67.3220 C.ar   82  PHE82      -0.0003
     50  CE2      -21.8690    3.2540   68.9630 C.ar   82  PHE82      -0.0003
     51  CZ       -21.0010    3.3930   67.8860 C.ar   82  PHE82      -0.0000
     52  N        -29.7890   -2.4650   67.6000 N.3    85  ARG85      -0.1245
     53  CA       -28.9440   -1.4910   66.9240 C.3    85  ARG85       0.1563
     54  C        -28.4920   -2.0140   65.5690 C.2    85  ARG85       0.2260
     55  O        -28.4870   -1.2770   64.5840 O.2    85  ARG85      -0.2867
     56  CB       -27.7220   -1.1640   67.7790 C.3    85  ARG85       0.0307
     57  CG       -28.0200   -0.3230   69.0060 C.3    85  ARG85       0.0489
     58  CD       -26.7520   -0.1180   69.8080 C.3    85  ARG85       0.2205
     59  NE       -25.6620    0.3410   68.9540 N.pl3  85  ARG85      -0.0865
     60  CZ       -24.3820    0.3310   69.3080 C.cat  85  ARG85       0.5346
     61  NH1      -24.0260   -0.1150   70.5060 N.pl3  85  ARG85       0.1354
     62  NH2      -23.4570    0.7610   68.4610 N.pl3  85  ARG85       0.1354
     63  N        -27.2080   -1.6720   60.9490 N.3    90  HIS90      -0.1241
     64  CA       -26.2820   -2.4740   60.1500 C.3    90  HIS90       0.1621
     65  C        -26.8040   -3.5480   59.1910 C.2    90  HIS90       0.2264
     66  O        -26.2610   -3.7190   58.0980 O.2    90  HIS90      -0.2867
     67  CB       -25.2780   -3.1440   61.0910 C.3    90  HIS90       0.0745
     68  CG       -24.6110   -2.2020   62.0440 C.ar   90  HIS90       0.0817
     69  ND1      -23.6760   -1.2710   61.6440 N.ar   90  HIS90      -0.2268
     70  CD2      -24.7360   -2.0570   63.3850 C.ar   90  HIS90       0.1154
     71  CE1      -23.2520   -0.5960   62.6970 C.ar   90  HIS90       0.1986
     72  NE2      -23.8790   -1.0530   63.7670 N.ar   90  HIS90      -0.2212
     73  N        -22.3900    5.8900   63.8910 N.3   232  SER232     -0.1217
     74  CA       -22.5510    4.5230   64.3710 C.3   232  SER232      0.1889
     75  C        -22.6040    3.4980   63.2460 C.2   232  SER232      0.2288
     76  O        -22.1710    2.3630   63.4210 O.2   232  SER232     -0.2866
     77  CB       -23.8040    4.3960   65.2420 C.3   232  SER232      0.2089
     78  OG       -24.9880    4.6400   64.5030 O.3   232  SER232     -0.2183
     79  N        -18.6550    3.2730   62.2590 N.3   235  PHE235     -0.1227
     80  CA       -17.5940    3.0490   63.2310 C.3   235  PHE235      0.1736
     81  C        -16.9750    1.6610   63.3580 C.2   235  PHE235      0.2595
     82  O        -15.7640    1.5130   63.1830 O.2   235  PHE235     -0.2718
     83  CB       -18.0370    3.5420   64.6100 C.3   235  PHE235      0.0547
     84  CG       -16.8920    3.9710   65.4840 C.ar  235  PHE235     -0.0202
     85  CD1      -16.1370    3.0320   66.1800 C.ar  235  PHE235     -0.0042
     86  CD2      -16.5320    5.3140   65.5650 C.ar  235  PHE235     -0.0042
     87  CE1      -15.0370    3.4250   66.9440 C.ar  235  PHE235     -0.0003
     88  CE2      -15.4340    5.7190   66.3260 C.ar  235  PHE235     -0.0003
     89  CZ       -14.6860    4.7700   67.0170 C.ar  235  PHE235     -0.0000
     90  N        -17.7880    0.6560   63.6570 N.am  236  ALA236     -0.1980
     91  CA       -17.2760   -0.6980   63.8320 C.3   236  ALA236      0.1597
     92  C        -16.5060   -1.2150   62.6210 C.2   236  ALA236      0.2287
     93  O        -15.5870   -2.0220   62.7640 O.2   236  ALA236     -0.2864
     94  CB       -18.4190   -1.6420   64.1650 C.3   236  ALA236      0.0319
     95  N        -12.1870    1.5940   61.4790 N.3   239  HIS239     -0.1241
     96  CA       -10.8280    1.3640   61.9550 C.3   239  HIS239      0.1621
     97  C        -10.3840   -0.0830   61.7550 C.2   239  HIS239      0.2264
     98  O         -9.1960   -0.3540   61.5650 O.2   239  HIS239     -0.2867
     99  CB       -10.6930    1.7770   63.4300 C.3   239  HIS239      0.0745
    100  CG       -11.4320    0.8930   64.3840 C.ar  239  HIS239      0.0817
    101  ND1      -10.8440   -0.1880   65.0050 N.ar  239  HIS239     -0.2268
    102  CD2      -12.7120    0.9280   64.8220 C.ar  239  HIS239      0.1154
    103  CE1      -11.7300   -0.7800   65.7860 C.ar  239  HIS239      0.1986
    104  NE2      -12.8720   -0.1220   65.6920 N.ar  239  HIS239     -0.2212
    105  N         -7.5670   -6.2620   64.8390 N.3   300  PRO300     -0.2102
    106  CA        -7.8690   -4.8560   65.1260 C.3   300  PRO300      0.1504
    107  C         -8.4790   -4.5860   66.4950 C.2   300  PRO300      0.2576
    108  O         -8.2830   -3.5100   67.0570 O.2   300  PRO300     -0.2718
    109  CB        -8.7700   -4.4450   63.9610 C.3   300  PRO300      0.0282
    110  CG        -9.4630   -5.6900   63.6170 C.3   300  PRO300      0.0208
    111  CD        -8.3860   -6.7610   63.7190 C.3   300  PRO300      0.0893
    112  N         -9.2330   -5.5450   67.0200 N.am  301  LEU301     -0.1966
    113  CA        -9.7950   -5.4050   68.3660 C.3   301  LEU301      0.1728
    114  C         -8.9580   -6.3640   69.2110 C.2   301  LEU301      0.2616
    115  O         -9.0580   -7.5830   69.0520 O.2   301  LEU301     -0.2715
    116  CB       -11.2720   -5.8100   68.4040 C.3   301  LEU301      0.0311
    117  CG       -12.2660   -4.8780   67.6980 C.3   301  LEU301      0.0022
    118  CD1      -12.0610   -4.9490   66.2010 C.3   301  LEU301      0.0001
    119  CD2      -13.6910   -5.2820   68.0510 C.3   301  LEU301      0.0001
    120  N         -8.1130   -5.8200   70.0870 N.am  302  ILE302     -0.1963
    121  CA        -7.2430   -6.6690   70.9060 C.3   302  ILE302      0.1727
    122  C         -7.8550   -7.1610   72.2060 C.2   302  ILE302      0.2616
    123  O         -7.3150   -8.0590   72.8540 O.2   302  ILE302     -0.2715
    124  CB        -5.9000   -5.9730   71.2230 C.3   302  ILE302      0.0290
    125  CG1       -6.1390   -4.6960   72.0260 C.3   302  ILE302      0.0022
    126  CG2       -5.1610   -5.6620   69.9230 C.3   302  ILE302      0.0023
    127  CD1       -4.8630   -4.0590   72.5420 C.3   302  ILE302      0.0001
    128  N         -8.9710   -6.5670   72.6000 N.am  303  ILE303     -0.1963
    129  CA        -9.6540   -6.9970   73.8100 C.3   303  ILE303      0.1727
    130  C        -11.1510   -6.8370   73.5830 C.2   303  ILE303      0.2616
    131  O        -11.5900   -5.8910   72.9250 O.2   303  ILE303     -0.2715
    132  CB        -9.1900   -6.1770   75.0490 C.3   303  ILE303      0.0290
    133  CG1       -9.7620   -6.7920   76.3260 C.3   303  ILE303      0.0022
    134  CG2       -9.6150   -4.7240   74.9140 C.3   303  ILE303      0.0023
    135  CD1       -9.1440   -6.2270   77.6000 C.3   303  ILE303      0.0001
    136  N        -11.9230   -7.7870   74.1020 N.am  304  LEU304     -0.1977
    137  CA       -13.3740   -7.7760   73.9800 C.3   304  LEU304      0.1596
    138  C        -13.8870   -7.7480   75.4150 C.2   304  LEU304      0.2287
    139  O        -13.3680   -8.4620   76.2720 O.2   304  LEU304     -0.2864
    140  CB       -13.8570   -9.0330   73.2540 C.3   304  LEU304      0.0297
    141  CG       -13.2280   -9.2590   71.8730 C.3   304  LEU304      0.0022
    142  CD1      -13.7510  -10.5530   71.2680 C.3   304  LEU304      0.0001
    143  CD2      -13.5360   -8.0720   70.9730 C.3   304  LEU304      0.0001
    144  N         -8.3670    2.7670   72.9760 N.3   413  MET413     -0.1230
    145  CA        -9.1560    1.5510   72.8300 C.3   413  MET413      0.1702
    146  C         -9.3370    1.2210   71.3530 C.2   413  MET413      0.2592
    147  O         -9.4950    0.0570   70.9860 O.2   413  MET413     -0.2718
    148  CB       -10.5150    1.6990   73.5120 C.3   413  MET413      0.0401
    149  CG       -10.4330    1.8020   75.0310 C.3   413  MET413      0.0596
    150  SD        -9.5710    0.4000   75.8010 S.3   413  MET413     -0.1393
    151  CE       -10.7080   -0.9050   75.5090 C.3   413  MET413      0.0692
    152  N         -9.3330    2.2490   70.5100 N.am  414  VAL414     -0.1980
    153  CA        -9.4370    2.0340   69.0720 C.3   414  VAL414      0.1595
    154  C         -8.0060    2.0130   68.5560 C.2   414  VAL414      0.2287
    155  O         -7.3400    3.0490   68.5010 O.2   414  VAL414     -0.2864
    156  CB       -10.2160    3.1680   68.3710 C.3   414  VAL414      0.0276
    157  CG1      -10.1170    3.0100   66.8590 C.3   414  VAL414      0.0022
    158  CG2      -11.6700    3.1390   68.8020 C.3   414  VAL414      0.0022
@<TRIPOS>BOND
     1    66    65    2
     2    65    64    1
     3    64    63    1
     4    64    67    1
     5    67    68    1
     6    95    96    1
     7    98    97    2
     8    69    68   ar
     9    69    71   ar
    10    97    96    1
    11    96    99    1
    12    68    70   ar
    13    79    80    1
    14    92    93    2
    15    92    91    1
    16    71    72   ar
    17    82    81    2
    18    80    81    1
    19    80    83    1
    20    75    76    2
    21    75    74    1
    22    81    90   am
    23    70    72   ar
    24    99   100    1
    25   110   111    1
    26   110   109    1
    27    90    91    1
    28   111   105    1
    29    91    94    1
    30    73    74    1
    31   109   106    1
    32    74    77    1
    33   100   102   ar
    34   100   101   ar
    35    78    77    1
    36    55    54    2
    37    83    84    1
    38   102   104   ar
    39   105   106    1
    40   101   103   ar
    41   106   107    1
    42    84    86   ar
    43    84    85   ar
    44    86    88   ar
    45    54    53    1
    46   104   103   ar
    47    85    87   ar
    48   118   117    1
    49    88    89   ar
    50   107   112   am
    51   107   108    2
    52   157   156    1
    53    53    52    1
    54    53    56    1
    55    87    89   ar
    56   112   113    1
    57    49    47   ar
    58    49    51   ar
    59   117   119    1
    60   117   116    1
    61    56    57    1
    62    47    46   ar
    63    51    50   ar
    64   113   116    1
    65   113   114    1
    66   156   158    1
    67   156   153    1
    68    62    60    1
    69   155   154    2
    70   154   153    1
    71    44    43    2
    72    46    45    1
    73    46    48   ar
    74    59    60    2
    75    59    58    1
    76    50    48   ar
    77    57    58    1
    78    40    39    1
    79   115   114    2
    80   153   152    1
    81    42    45    1
    82    42    43    1
    83    42    41    1
    84   114   120   am
    85    60    61    1
    86   126   124    1
    87   120   121    1
    88    39    38    1
    89   152   146   am
    90   121   124    1
    91   121   122    1
    92   143   141    1
    93   147   146    2
    94   124   125    1
    95   142   141    1
    96   146   145    1
    97     9     7   am
    98    38    37    1
    99   141   140    1
   100    36    35    2
   101     8     7    2
   102   125   127    1
   103    37    34    1
   104   122   128   am
   105   122   123    2
   106     7     6    1
   107    30    28   ar
   108    30    32   ar
   109    34    35    1
   110    34    33    1
   111   128   129    1
   112   145   144    1
   113   145   148    1
   114   131   130    2
   115    28    27   ar
   116   140   137    1
   117    21    20    1
   118    25    24    2
   119    32    31   ar
   120    19    20   ar
   121    19    17   ar
   122   148   149    1
   123   130   129    1
   124   130   136   am
   125    20    18   ar
   126    17    15   ar
   127     6     5    1
   128    33    24   am
   129   129   132    1
   130   137   136    1
   131   137   138    1
   132    24    23    1
   133    18    16   ar
   134    15    16   ar
   135    15    14    1
   136    27    26    1
   137    27    29   ar
   138    14    11    1
   139     5     2    1
   140    31    29   ar
   141   134   132    1
   142    26    23    1
   143   149   150    1
   144   132   133    1
   145    13    12    2
   146    23    22    1
   147   138   139    2
   148   151   150    1
   149     4     3    2
   150    11    12    1
   151    11    10    1
   152     2     3    1
   153     2     1    1
   154   133   135    1
