@<TRIPOS>MOLECULE
tmp/1x8vA02.pdb
 84 78 0 0 0
SMALL
GASTEIGER

@<TRIPOS>ATOM
      1  N        -31.3140   -1.9380   63.1400 N.3    88  MET88      -0.1230
      2  CA       -31.6360   -0.5810   62.7300 C.3    88  MET88       0.1702
      3  C        -30.5010    0.1040   61.9760 C.2    88  MET88       0.2592
      4  O        -30.7390    0.8800   61.0480 O.2    88  MET88      -0.2718
      5  CB       -31.9760    0.2560   63.9650 C.3    88  MET88       0.0401
      6  CG       -33.1910    1.1450   63.8120 C.3    88  MET88       0.0596
      7  SD       -34.7310    0.2160   63.9140 S.3    88  MET88      -0.1393
      8  CE       -35.0650    0.3050   65.6740 C.3    88  MET88       0.0692
      9  N        -29.2660   -0.1950   62.3650 N.am   89  LEU89      -0.1980
     10  CA       -28.1160    0.4590   61.7560 C.3    89  LEU89       0.1596
     11  C        -27.2020   -0.3460   60.8390 C.2    89  LEU89       0.2287
     12  O        -26.5010    0.2440   60.0170 O.2    89  LEU89      -0.2864
     13  CB       -27.2490    1.0730   62.8600 C.3    89  LEU89       0.0297
     14  CG       -27.9260    1.9800   63.8910 C.3    89  LEU89       0.0022
     15  CD1      -26.9370    2.3110   65.0000 C.3    89  LEU89       0.0001
     16  CD2      -28.4340    3.2460   63.2170 C.3    89  LEU89       0.0001
     17  N        -30.6110    7.3790   52.0160 N.3   208  MET208     -0.1245
     18  CA       -30.8950    7.3110   53.4400 C.3   208  MET208      0.1570
     19  C        -31.0750    8.7020   54.0500 C.2   208  MET208      0.2261
     20  O        -31.9680    8.9190   54.8650 O.2   208  MET208     -0.2867
     21  CB       -29.7550    6.5880   54.1500 C.3   208  MET208      0.0387
     22  CG       -29.9410    6.4280   55.6410 C.3   208  MET208      0.0595
     23  SD       -28.4870    5.6550   56.3620 S.3   208  MET208     -0.1393
     24  CE       -28.5340    4.0630   55.5400 C.3   208  MET208      0.0692
     25  N        -34.4190   10.3410   53.2910 N.3   211  VAL211     -0.1231
     26  CA       -35.4860    9.7610   54.0980 C.3   211  VAL211      0.1692
     27  C        -35.4790   10.3160   55.5200 C.2   211  VAL211      0.2591
     28  O        -36.5220   10.6880   56.0530 O.2   211  VAL211     -0.2718
     29  CB       -35.3610    8.2220   54.1600 C.3   211  VAL211      0.0266
     30  CG1      -36.3740    7.6510   55.1440 C.3   211  VAL211      0.0020
     31  CG2      -35.5810    7.6330   52.7790 C.3   211  VAL211      0.0020
     32  N        -34.3000   10.3780   56.1280 N.am  212  LEU212     -0.1980
     33  CA       -34.1720   10.8910   57.4890 C.3   212  LEU212      0.1596
     34  C        -34.5890   12.3560   57.5840 C.2   212  LEU212      0.2287
     35  O        -35.2070   12.7720   58.5640 O.2   212  LEU212     -0.2864
     36  CB       -32.7290   10.7300   57.9770 C.3   212  LEU212      0.0297
     37  CG       -32.2800    9.2920   58.2590 C.3   212  LEU212      0.0022
     38  CD1      -30.7680    9.2300   58.4380 C.3   212  LEU212      0.0001
     39  CD2      -32.9970    8.7870   59.4990 C.3   212  LEU212      0.0001
     40  N        -38.4610   12.7850   57.8460 N.3   215  VAL215     -0.1245
     41  CA       -39.1810   12.3160   59.0280 C.3   215  VAL215      0.1561
     42  C        -39.5780   13.4990   59.9100 C.2   215  VAL215      0.2260
     43  O        -38.7650   14.3800   60.1880 O.2   215  VAL215     -0.2867
     44  CB       -38.3260   11.3260   59.8500 C.3   215  VAL215      0.0252
     45  CG1      -39.1330   10.7840   61.0190 C.3   215  VAL215      0.0019
     46  CG2      -37.8610   10.1860   58.9600 C.3   215  VAL215      0.0019
     47  N        -38.1580   15.8720   62.6260 N.3   220  ARG220     -0.1231
     48  CA       -37.8930   15.0390   63.7880 C.3   220  ARG220      0.1694
     49  C        -36.4190   14.9640   64.1730 C.2   220  ARG220      0.2592
     50  O        -36.0840   14.9680   65.3590 O.2   220  ARG220     -0.2718
     51  CB       -38.4360   13.6330   63.5260 C.3   220  ARG220      0.0321
     52  CG       -38.4430   12.7100   64.7290 C.3   220  ARG220      0.0489
     53  CD       -39.2840   11.4840   64.4210 C.3   220  ARG220      0.2205
     54  NE       -39.4090   10.5770   65.5560 N.pl3 220  ARG220     -0.0865
     55  CZ       -40.2130    9.5200   65.5710 C.cat 220  ARG220      0.5346
     56  NH1      -40.9610    9.2420   64.5110 N.pl3 220  ARG220      0.1354
     57  NH2      -40.2700    8.7400   66.6430 N.pl3 220  ARG220      0.1354
     58  N        -35.5350   14.9080   63.1800 N.am  221  PHE221     -0.1976
     59  CA       -34.1090   14.7980   63.4630 C.3   221  PHE221      0.1639
     60  C        -33.2790   16.0340   63.1630 C.2   221  PHE221      0.2290
     61  O        -33.4400   16.6760   62.1250 O.2   221  PHE221     -0.2864
     62  CB       -33.5110   13.6140   62.6970 C.3   221  PHE221      0.0560
     63  CG       -34.1280   12.2930   63.0450 C.ar  221  PHE221     -0.0200
     64  CD1      -34.0560   11.7980   64.3440 C.ar  221  PHE221     -0.0042
     65  CD2      -34.7880   11.5440   62.0760 C.ar  221  PHE221     -0.0042
     66  CE1      -34.6350   10.5730   64.6750 C.ar  221  PHE221     -0.0003
     67  CE2      -35.3700   10.3190   62.3940 C.ar  221  PHE221     -0.0003
     68  CZ       -35.2940    9.8320   63.6970 C.ar  221  PHE221     -0.0000
     69  N        -26.2500    8.8500   64.0200 N.3   229  MET229     -0.1245
     70  CA       -26.6490    7.6220   63.3490 C.3   229  MET229      0.1570
     71  C        -25.6270    7.2100   62.2980 C.2   229  MET229      0.2261
     72  O        -25.2650    6.0380   62.2120 O.2   229  MET229     -0.2867
     73  CB       -28.0200    7.7990   62.6960 C.3   229  MET229      0.0387
     74  CG       -29.1600    7.8480   63.6930 C.3   229  MET229      0.0595
     75  SD       -30.7610    8.0720   62.9080 S.3   229  MET229     -0.1393
     76  CE       -31.1390    9.7550   63.3850 C.3   229  MET229      0.0692
     77  N        -23.1310    3.8870   62.0920 N.3   233  MET233     -0.1245
     78  CA       -23.2110    2.9540   60.9730 C.3   233  MET233      0.1570
     79  C        -21.8470    2.6370   60.3850 C.2   233  MET233      0.2261
     80  O        -21.6550    1.5820   59.7780 O.2   233  MET233     -0.2867
     81  CB       -24.0960    3.5230   59.8660 C.3   233  MET233      0.0387
     82  CG       -25.5480    3.6410   60.2350 C.3   233  MET233      0.0595
     83  SD       -26.4440    4.3710   58.8610 S.3   233  MET233     -0.1393
     84  CE       -26.7260    2.9110   57.8740 C.3   233  MET233      0.0692
@<TRIPOS>BOND
     1    17    18    1
     2    31    29    1
     3    25    26    1
     4    18    19    1
     5    18    21    1
     6    19    20    2
     7    26    29    1
     8    26    27    1
     9    21    22    1
    10    29    30    1
    11    27    28    2
    12    27    32   am
    13    24    23    1
    14    22    23    1
    15    32    33    1
    16    33    34    1
    17    33    36    1
    18    34    35    2
    19    40    41    1
    20    84    83    1
    21    36    37    1
    22    37    38    1
    23    37    39    1
    24    83    82    1
    25    46    44    1
    26    41    44    1
    27    41    42    1
    28    80    79    2
    29    44    45    1
    30    81    82    1
    31    81    78    1
    32    42    43    2
    33    12    11    2
    34    79    78    1
    35    11    10    1
    36    78    77    1
    37     4     3    2
    38    10     9    1
    39    10    13    1
    40     3     9   am
    41     3     2    1
    42    65    67   ar
    43    65    63   ar
    44    61    60    2
    45    72    71    2
    46    71    70    1
    47    67    68   ar
    48    47    48    1
    49    73    70    1
    50    73    74    1
    51    62    63    1
    52    62    59    1
    53     2     1    1
    54     2     5    1
    55    13    14    1
    56    75    76    1
    57    75    74    1
    58    63    64   ar
    59    60    59    1
    60    58    59    1
    61    58    49   am
    62    16    14    1
    63    70    69    1
    64    51    48    1
    65    51    52    1
    66    68    66   ar
    67    48    49    1
    68     6     7    1
    69     6     5    1
    70    14    15    1
    71     7     8    1
    72    49    50    2
    73    64    66   ar
    74    53    52    1
    75    53    54    1
    76    56    55    1
    77    54    55    2
    78    55    57    1
