@<TRIPOS>MOLECULE
tmp/1x92B00.pdb
 82 76 0 0 0
SMALL
GASTEIGER

@<TRIPOS>ATOM
      1  N         39.7150  -41.9430  -21.0880 N.3    53  ASN53      -0.1225
      2  CA        41.1450  -41.8030  -21.1930 C.3    53  ASN53       0.1785
      3  C         41.6170  -40.4260  -20.7050 C.2    53  ASN53       0.2598
      4  O         40.8820  -39.4510  -20.8570 O.2    53  ASN53      -0.2718
      5  CB        41.5870  -41.9690  -22.6560 C.3    53  ASN53       0.1169
      6  CG        41.1180  -43.2590  -23.2440 C.2    53  ASN53       0.2627
      7  OD1       40.0180  -43.3500  -23.8140 O.2    53  ASN53      -0.2716
      8  ND2       41.9460  -44.2720  -23.1310 N.am   53  ASN53      -0.0877
      9  N         42.8520  -40.3500  -20.1720 N.am   54  GLY54      -0.1942
     10  CA        43.4030  -39.0730  -19.6980 C.3    54  GLY54       0.2014
     11  C         42.5190  -38.2980  -18.7150 C.2    54  GLY54       0.2639
     12  O         42.1600  -38.8550  -17.6760 O.2    54  GLY54      -0.2714
     13  N         42.1390  -37.0540  -19.0550 N.am   55  GLY55      -0.1939
     14  CA        41.2610  -36.2890  -18.1880 C.3    55  GLY55       0.2014
     15  C         39.9230  -37.0390  -18.0080 C.2    55  GLY55       0.2639
     16  O         39.2920  -36.9690  -16.9330 O.2    55  GLY55      -0.2714
     17  N         39.5040  -37.7620  -19.0290 N.am   56  SER56      -0.1949
     18  CA        38.2600  -38.4850  -18.9010 C.3    56  SER56       0.1924
     19  C         38.4570  -39.6610  -17.9560 C.2    56  SER56       0.2314
     20  O         37.4930  -40.1150  -17.3680 O.2    56  SER56      -0.2863
     21  CB        37.7420  -38.9580  -20.2780 C.3    56  SER56       0.2116
     22  OG        37.6170  -37.8370  -21.1520 O.3    56  SER56      -0.2180
     23  N         33.1320  -41.8850  -21.2250 N.3   120  ILE120     -0.1231
     24  CA        33.5860  -40.4860  -21.2970 C.3   120  ILE120      0.1692
     25  C         34.6330  -40.2470  -22.3700 C.2   120  ILE120      0.2593
     26  O         35.6040  -40.9420  -22.4000 O.2   120  ILE120     -0.2718
     27  CB        34.1310  -40.1220  -19.9450 C.3   120  ILE120      0.0266
     28  CG1       33.0980  -40.5450  -18.8810 C.3   120  ILE120      0.0019
     29  CG2       34.4050  -38.6690  -19.8940 C.3   120  ILE120      0.0020
     30  CD1       33.4900  -40.1580  -17.4450 C.3   120  ILE120      0.0001
     31  N         34.4130  -39.3090  -23.2770 N.am  121  SER121     -0.1938
     32  CA        35.3790  -39.0290  -24.3690 C.3   121  SER121      0.2055
     33  C         35.0880  -37.6400  -24.9210 C.2   121  SER121      0.2644
     34  O         33.9250  -37.3120  -25.1790 O.2   121  SER121     -0.2714
     35  CB        35.2580  -40.0510  -25.4890 C.3   121  SER121      0.2130
     36  OG        36.0680  -39.6930  -26.6050 O.3   121  SER121     -0.2179
     37  N         36.1060  -36.7960  -25.0530 N.am  122  THR122     -0.1936
     38  CA        35.8390  -35.4690  -25.5460 C.3   122  THR122      0.2028
     39  C         35.6730  -35.4970  -27.0610 C.2   122  THR122      0.2642
     40  O         35.0900  -34.5670  -27.6300 O.2   122  THR122     -0.2714
     41  CB        36.9510  -34.5060  -25.1560 C.3   122  THR122      0.1808
     42  OG1       38.1500  -34.9190  -25.8160 O.3   122  THR122     -0.2208
     43  CG2       37.1410  -34.5000  -23.5730 C.3   122  THR122      0.0379
     44  N         36.1390  -36.5490  -27.7240 N.am  123  SER123     -0.1949
     45  CA        35.9960  -36.5740  -29.1800 C.3   123  SER123      0.1924
     46  C         34.9440  -37.5760  -29.5910 C.2   123  SER123      0.2314
     47  O         34.3700  -37.4930  -30.6670 O.2   123  SER123     -0.2863
     48  CB        37.3080  -36.9890  -29.8520 C.3   123  SER123      0.2116
     49  OG        37.6200  -38.3480  -29.5130 O.3   123  SER123     -0.2180
     50  N         37.5410  -42.3300  -29.1210 N.3   126  SER126     -0.1217
     51  CA        38.5420  -43.2380  -28.5290 C.3   126  SER126      0.1889
     52  C         38.1240  -44.6620  -28.7570 C.2   126  SER126      0.2288
     53  O         37.0400  -45.0620  -28.3280 O.2   126  SER126     -0.2866
     54  CB        38.6840  -43.0010  -27.0390 C.3   126  SER126      0.2089
     55  OG        39.2150  -41.7200  -26.8720 O.3   126  SER126     -0.2183
     56  N         32.4840  -32.3920  -29.4190 N.3   149  ARG149     -0.1245
     57  CA        32.6220  -32.2950  -30.8680 C.3   149  ARG149      0.1563
     58  C         31.3580  -32.8090  -31.5470 C.2   149  ARG149      0.2260
     59  O         30.2520  -32.3380  -31.2310 O.2   149  ARG149     -0.2867
     60  CB        33.8400  -33.0730  -31.3230 C.3   149  ARG149      0.0307
     61  CG        35.1250  -32.4860  -30.7700 C.3   149  ARG149      0.0489
     62  CD        36.3320  -33.2270  -31.3780 C.3   149  ARG149      0.2205
     63  NE        37.6110  -32.6040  -31.0220 N.pl3 149  ARG149     -0.0865
     64  CZ        38.2260  -32.7330  -29.8360 C.cat 149  ARG149      0.5346
     65  NH1       37.6850  -33.4860  -28.8330 N.pl3 149  ARG149      0.1354
     66  NH2       39.4030  -32.1320  -29.6370 N.pl3 149  ARG149      0.1354
     67  N         38.9870  -29.8810  -26.1960 N.3   172  THR172     -0.1218
     68  CA        39.0500  -30.8850  -25.1650 C.3   172  THR172      0.1862
     69  C         39.0250  -30.3300  -23.7490 C.2   172  THR172      0.2287
     70  O         38.2450  -30.8180  -22.9140 O.2   172  THR172     -0.2866
     71  CB        40.2960  -31.8060  -25.3260 C.3   172  THR172      0.1770
     72  OG1       40.1450  -32.5780  -26.5080 O.3   172  THR172     -0.2211
     73  CG2       40.4440  -32.7780  -24.1140 C.3   172  THR172      0.0375
     74  N         36.0160  -31.1050  -21.0240 N.3   176  GLN176     -0.1245
     75  CA        36.2780  -31.7670  -19.7430 C.3   176  GLN176      0.1566
     76  C         35.6980  -30.9280  -18.6340 C.2   176  GLN176      0.2260
     77  O         35.1340  -31.4380  -17.6930 O.2   176  GLN176     -0.2867
     78  CB        37.7850  -31.9100  -19.5180 C.3   176  GLN176      0.0367
     79  CG        38.3360  -32.9540  -20.4080 C.3   176  GLN176      0.0905
     80  CD        39.8750  -32.9930  -20.4150 C.2   176  GLN176      0.2608
     81  OE1       40.5680  -32.0160  -20.0860 O.2   176  GLN176     -0.2717
     82  NE2       40.4030  -34.1280  -20.8210 N.am  176  GLN176     -0.0878
@<TRIPOS>BOND
     1    58    59    2
     2    58    57    1
     3    62    63    1
     4    62    61    1
     5    60    57    1
     6    60    61    1
     7    63    64    2
     8    57    56    1
     9    47    46    2
    10    48    49    1
    11    48    45    1
    12    64    66    1
    13    64    65    1
    14    46    45    1
    15    45    44    1
    16    50    51    1
    17    52    51    1
    18    52    53    2
    19    51    54    1
    20    44    39   am
    21    40    39    2
    22    39    38    1
    23    54    55    1
    24    36    35    1
    25    72    71    1
    26    67    68    1
    27    42    41    1
    28    38    41    1
    29    38    37    1
    30    35    32    1
    31    71    68    1
    32    71    73    1
    33    34    33    2
    34    68    69    1
    35    41    43    1
    36    37    33   am
    37    33    32    1
    38    32    31    1
    39     7     6    2
    40    69    70    2
    41    31    25   am
    42     6     8   am
    43     6     5    1
    44     5     2    1
    45    26    25    2
    46    25    24    1
    47    24    23    1
    48    24    27    1
    49     2     1    1
    50     2     3    1
    51    22    21    1
    52    74    75    1
    53     4     3    2
    54    82    80   am
    55     3     9   am
    56    80    79    1
    57    80    81    2
    58    79    78    1
    59    21    18    1
    60     9    10    1
    61    27    29    1
    62    27    28    1
    63    75    78    1
    64    75    76    1
    65    10    11    1
    66    13    11   am
    67    13    14    1
    68    17    18    1
    69    17    15   am
    70    18    19    1
    71    28    30    1
    72    11    12    2
    73    76    77    2
    74    14    15    1
    75    15    16    2
    76    19    20    2
