@<TRIPOS>MOLECULE
tmp/1x98A01.pdb
 130 132 0 0 0
SMALL
GASTEIGER

@<TRIPOS>ATOM
      1  N         15.5930   -8.3110   25.5890 N.3    21  TRP21      -0.1241
      2  CA        16.0840   -9.0290   24.3860 C.3    21  TRP21       0.1605
      3  C         17.1330  -10.0530   24.7960 C.2    21  TRP21       0.2264
      4  O         18.0630   -9.6750   25.4980 O.2    21  TRP21      -0.2867
      5  CB        16.6690   -8.0190   23.4000 C.3    21  TRP21       0.0550
      6  CG        17.1890   -8.6610   22.1430 C.ar   21  TRP21       0.0003
      7  CD1       16.7110   -9.7200   21.4330 C.ar   21  TRP21       0.0946
      8  CD2       18.3900   -8.2240   21.4500 C.ar   21  TRP21       0.0152
      9  NE1       17.5430   -9.9700   20.3160 N.ar   21  TRP21      -0.2442
     10  CE2       18.5510   -9.0650   20.3320 C.ar   21  TRP21       0.0810
     11  CE3       19.3240   -7.1930   21.6730 C.ar   21  TRP21       0.0012
     12  CZ2       19.6380   -8.9060   19.4370 C.ar   21  TRP21       0.0191
     13  CZ3       20.3760   -7.0490   20.7790 C.ar   21  TRP21       0.0001
     14  CH2       20.5220   -7.8980   19.6690 C.ar   21  TRP21       0.0015
     15  N          9.0020   -9.6840   18.9770 N.3    48  VAL48      -0.1231
     16  CA        10.0390  -10.4330   18.2650 C.3    48  VAL48       0.1692
     17  C         11.0120  -11.0720   19.2580 C.2    48  VAL48       0.2592
     18  O         11.7750  -11.9660   18.8540 O.2    48  VAL48      -0.2718
     19  CB        10.7430   -9.4960   17.2580 C.3    48  VAL48       0.0266
     20  CG1       11.7130   -8.5800   17.9900 C.3    48  VAL48       0.0020
     21  CG2       11.4600  -10.2870   16.1400 C.3    48  VAL48       0.0020
     22  N         11.0250  -10.6740   20.5390 N.am   49  TYR49      -0.1976
     23  CA        11.9330  -11.3420   21.4990 C.3    49  TYR49       0.1639
     24  C         11.4230  -12.7110   21.9190 C.2    49  TYR49       0.2290
     25  O         12.1650  -13.5070   22.5230 O.2    49  TYR49      -0.2864
     26  CB        12.1470  -10.4960   22.7660 C.3    49  TYR49       0.0560
     27  CG        12.6860   -9.0950   22.4940 C.ar   49  TYR49      -0.0198
     28  CD1       13.3090   -8.7560   21.3120 C.ar   49  TYR49      -0.0009
     29  CD2       12.5880   -8.1040   23.4690 C.ar   49  TYR49      -0.0009
     30  CE1       13.8030   -7.4720   21.1160 C.ar   49  TYR49       0.0417
     31  CE2       13.0510   -6.8170   23.2830 C.ar   49  TYR49       0.0417
     32  CZ        13.6560   -6.5090   22.0930 C.ar   49  TYR49       0.1957
     33  OH        14.1220   -5.2400   21.8640 O.3    49  TYR49      -0.2866
     34  N          6.3640   -5.4450   15.4900 N.3    80  TRP80      -0.1241
     35  CA         7.4110   -5.9890   14.5890 C.3    80  TRP80       0.1605
     36  C          7.1100   -5.6040   13.1380 C.2    80  TRP80       0.2264
     37  O          5.9980   -5.2220   12.7540 O.2    80  TRP80      -0.2867
     38  CB         7.5930   -7.5240   14.8930 C.3    80  TRP80       0.0550
     39  CG         8.6750   -7.9990   13.9960 C.ar   80  TRP80       0.0003
     40  CD1        8.5740   -8.8570   12.9150 C.ar   80  TRP80       0.0946
     41  CD2       10.0720   -7.5850   14.0780 C.ar   80  TRP80       0.0152
     42  NE1        9.8350   -8.9770   12.3660 N.ar   80  TRP80      -0.2442
     43  CE2       10.7850   -8.2310   13.0340 C.ar   80  TRP80       0.0810
     44  CE3       10.7880   -6.7330   14.9480 C.ar   80  TRP80       0.0012
     45  CZ2       12.1510   -8.0470   12.8350 C.ar   80  TRP80       0.0191
     46  CZ3       12.1320   -6.5570   14.7620 C.ar   80  TRP80       0.0001
     47  CH2       12.8100   -7.2180   13.7160 C.ar   80  TRP80       0.0015
     48  N          8.9520   -0.8310   15.8830 N.3   111  HIS111     -0.1226
     49  CA        10.2790   -1.3950   16.2400 C.3   111  HIS111      0.1752
     50  C         11.3620   -0.9730   15.2660 C.2   111  HIS111      0.2596
     51  O         12.4710   -0.6400   15.7250 O.2   111  HIS111     -0.2718
     52  CB        10.1720   -2.9140   16.3440 C.3   111  HIS111      0.0759
     53  CG        11.2400   -3.5830   17.1520 C.ar  111  HIS111      0.0818
     54  ND1       10.9870   -4.7640   17.8340 N.ar  111  HIS111     -0.2268
     55  CD2       12.5020   -3.2510   17.3900 C.ar  111  HIS111      0.1154
     56  CE1       12.1080   -5.1130   18.4520 C.ar  111  HIS111      0.1986
     57  NE2       13.0420   -4.2120   18.2010 N.ar  111  HIS111     -0.2212
     58  N         11.0750   -0.9270   13.9860 N.am  112  TRP112     -0.1976
     59  CA        11.9640   -0.4070   12.9590 C.3   112  TRP112      0.1640
     60  C         11.1340    0.3630   11.9390 C.2   112  TRP112      0.2290
     61  O          9.9810    0.0090   11.7220 O.2   112  TRP112     -0.2864
     62  CB        12.7170   -1.5330   12.2160 C.3   112  TRP112      0.0576
     63  CG        13.7370   -2.2590   13.0410 C.ar  112  TRP112      0.0006
     64  CD1       13.4910   -3.3560   13.8450 C.ar  112  TRP112      0.0946
     65  CD2       15.1220   -1.9670   13.1640 C.ar  112  TRP112      0.0152
     66  NE1       14.6800   -3.7480   14.4500 N.ar  112  TRP112     -0.2442
     67  CE2       15.7000   -2.8960   14.0400 C.ar  112  TRP112      0.0810
     68  CE3       15.9520   -0.9930   12.5970 C.ar  112  TRP112      0.0012
     69  CZ2       17.0570   -2.8760   14.3720 C.ar  112  TRP112      0.0191
     70  CZ3       17.2890   -0.9530   12.9130 C.ar  112  TRP112      0.0001
     71  CH2       17.8190   -1.8960   13.8030 C.ar  112  TRP112      0.0015
     72  N         11.6600  -12.5120    9.4720 N.3   123  PHE123     -0.1241
     73  CA        12.5060  -11.9590    8.4020 C.3   123  PHE123      0.1605
     74  C         12.2210  -12.7530    7.1280 C.2   123  PHE123      0.2264
     75  O         12.9600  -13.6960    6.8270 O.2   123  PHE123     -0.2867
     76  CB        13.9790  -12.0580    8.7600 C.3   123  PHE123      0.0534
     77  CG        14.4660  -11.0020    9.7460 C.ar  123  PHE123     -0.0203
     78  CD1       14.3060  -11.1690   11.1070 C.ar  123  PHE123     -0.0042
     79  CD2       15.0800   -9.8460    9.3000 C.ar  123  PHE123     -0.0042
     80  CE1       14.7790  -10.2280   11.9900 C.ar  123  PHE123     -0.0003
     81  CE2       15.5260   -8.8840   10.1740 C.ar  123  PHE123     -0.0003
     82  CZ        15.3360   -9.0840   11.5090 C.ar  123  PHE123     -0.0000
     83  N         14.7020    3.1570   16.2500 N.3   161  ASN161     -0.1240
     84  CA        15.6330    3.0460   15.1120 C.3   161  ASN161      0.1653
     85  C         15.2260    3.9680   13.9800 C.2   161  ASN161      0.2266
     86  O         15.5210    3.6460   12.8230 O.2   161  ASN161     -0.2867
     87  CB        15.7830    1.6390   14.6150 C.3   161  ASN161      0.1155
     88  CG        16.2210    0.7170   15.7230 C.2   161  ASN161      0.2627
     89  OD1       17.3580    0.8510   16.1990 O.2   161  ASN161     -0.2716
     90  ND2       15.3930   -0.2660   16.1010 N.am  161  ASN161     -0.0877
     91  N         19.2220    2.1940   24.0230 N.3   210  TYR210     -0.1241
     92  CA        19.3560    0.7540   24.0890 C.3   210  TYR210      0.1605
     93  C         20.8040    0.2850   23.9640 C.2   210  TYR210      0.2264
     94  O         21.6910    1.0250   23.5370 O.2   210  TYR210     -0.2867
     95  CB        18.4190    0.1200   23.1080 C.3   210  TYR210      0.0534
     96  CG        18.6300   -0.0370   21.6470 C.ar  210  TYR210     -0.0201
     97  CD1       19.6940   -0.7500   21.0800 C.ar  210  TYR210     -0.0009
     98  CD2       17.7150    0.4960   20.7520 C.ar  210  TYR210     -0.0009
     99  CE1       19.9200   -0.9360   19.7340 C.ar  210  TYR210      0.0417
    100  CE2       17.8990    0.2980   19.4250 C.ar  210  TYR210      0.0417
    101  CZ        18.9670   -0.3730   18.9070 C.ar  210  TYR210      0.1957
    102  OH        19.0810   -0.5920   17.5620 O.3   210  TYR210     -0.2866
    103  N         26.0830  -11.9940   17.1870 N.3   220  TRP220     -0.1241
    104  CA        27.0950  -11.7530   16.1550 C.3   220  TRP220      0.1605
    105  C         28.3660  -11.1290   16.7120 C.2   220  TRP220      0.2264
    106  O         29.1990  -10.6650   15.9060 O.2   220  TRP220     -0.2867
    107  CB        26.4560  -10.9290   15.0380 C.3   220  TRP220      0.0550
    108  CG        25.8510   -9.6380   15.5490 C.ar  220  TRP220      0.0003
    109  CD1       26.4760   -8.4760   15.8610 C.ar  220  TRP220      0.0946
    110  CD2       24.4660   -9.4600   15.7670 C.ar  220  TRP220      0.0152
    111  NE1       25.5350   -7.5560   16.2860 N.ar  220  TRP220     -0.2442
    112  CE2       24.2900   -8.1380   16.2370 C.ar  220  TRP220      0.0810
    113  CE3       23.3380  -10.2880   15.6190 C.ar  220  TRP220      0.0012
    114  CZ2       23.0320   -7.6380   16.5590 C.ar  220  TRP220      0.0191
    115  CZ3       22.0910   -9.7670   15.9460 C.ar  220  TRP220      0.0001
    116  CH2       21.9450   -8.4430   16.4130 C.ar  220  TRP220      0.0015
    117  N         23.5040   -2.9400   16.5920 N.3   299  CYS299     -0.1235
    118  CA        22.3800   -3.3900   15.7830 C.3   299  CYS299      0.1677
    119  C         22.3100   -2.6040   14.5130 C.2   299  CYS299      0.2270
    120  O         21.8250   -1.4650   14.4380 O.2   299  CYS299     -0.2867
    121  CB        21.0990   -3.1470   16.6070 C.3   299  CYS299      0.0956
    122  SG        20.8560   -4.2330   17.9950 S.3   299  CYS299     -0.0801
    123  N         21.0690   -4.0960   11.5610 N.3   301  LEU301     -0.1245
    124  CA        20.0370   -4.6690   10.6930 C.3   301  LEU301      0.1561
    125  C         20.5840   -4.9610    9.2760 C.2   301  LEU301      0.2260
    126  O         20.0480   -4.5430    8.2740 O.2   301  LEU301     -0.2867
    127  CB        18.7880   -3.7860   10.6530 C.3   301  LEU301      0.0270
    128  CG        17.4840   -4.4850   10.2300 C.3   301  LEU301      0.0019
    129  CD1       17.1190   -5.4390   11.3610 C.3   301  LEU301      0.0001
    130  CD2       16.3830   -3.5330    9.8220 C.3   301  LEU301      0.0001
@<TRIPOS>BOND
     1    75    74    2
     2    74    73    1
     3   126   125    2
     4    73    76    1
     5    73    72    1
     6    76    77    1
     7   125   124    1
     8    79    77   ar
     9    79    81   ar
    10    77    78   ar
    11   130   128    1
    12    81    82   ar
    13   128   127    1
    14   128   129    1
    15   127   124    1
    16   124   123    1
    17    78    80   ar
    18    82    80   ar
    19    61    60    2
    20    60    59    1
    21    62    59    1
    22    62    63    1
    23    42    40   ar
    24    42    43   ar
    25    68    70   ar
    26    68    65   ar
    27    37    36    2
    28    86    85    2
    29    45    43   ar
    30    45    47   ar
    31    70    71   ar
    32    40    39   ar
    33    59    58    1
    34    43    41   ar
    35    63    65   ar
    36    63    64   ar
    37    36    35    1
    38    65    67   ar
    39    47    46   ar
    40    71    69   ar
    41    64    66   ar
    42    85    84    1
    43    58    50   am
    44    39    41   ar
    45    39    38    1
    46    67    69   ar
    47    67    66   ar
    48    41    44   ar
    49   120   119    2
    50   119   118    1
    51    35    38    1
    52    35    34    1
    53    87    84    1
    54    87    88    1
    55    46    44   ar
    56   107   108    1
    57   107   104    1
    58    84    83    1
    59    50    51    2
    60    50    49    1
    61   108   110   ar
    62   108   109   ar
    63   113   110   ar
    64   113   115   ar
    65    88    90   am
    66    88    89    2
    67   110   112   ar
    68   118   117    1
    69   118   121    1
    70   109   111   ar
    71    48    49    1
    72   106   105    2
    73   115   116   ar
    74    21    19    1
    75   104   105    1
    76   104   103    1
    77   112   111   ar
    78   112   114   ar
    79    49    52    1
    80    52    53    1
    81   116   114   ar
    82   121   122    1
    83    53    55   ar
    84    53    54   ar
    85    19    20    1
    86    19    16    1
    87    55    57   ar
    88   102   101    1
    89    54    56   ar
    90    57    56   ar
    91    16    15    1
    92    16    17    1
    93    18    17    2
    94   101   100   ar
    95   101    99   ar
    96    17    22   am
    97   100    98   ar
    98    12    14   ar
    99    12    10   ar
   100    14    13   ar
   101    99    97   ar
   102     9    10   ar
   103     9     7   ar
   104    10     8   ar
   105    22    23    1
   106    98    96   ar
   107    13    11   ar
   108    97    96   ar
   109    30    28   ar
   110    30    32   ar
   111    28    27   ar
   112     7     6   ar
   113     8    11   ar
   114     8     6   ar
   115    23    24    1
   116    23    26    1
   117    96    95    1
   118    33    32    1
   119    24    25    2
   120    32    31   ar
   121     6     5    1
   122    27    26    1
   123    27    29   ar
   124    95    92    1
   125    31    29   ar
   126     5     2    1
   127    94    93    2
   128    93    92    1
   129    91    92    1
   130     2     3    1
   131     2     1    1
   132     3     4    2
