@<TRIPOS>MOLECULE
tmp/1x9fK00.pdb
 223 210 0 0 0
SMALL
GASTEIGER

@<TRIPOS>ATOM
      1  N         23.2130   38.5020  179.4630 N.3    38  LEU38      -0.1245
      2  CA        21.8070   38.8850  179.3830 C.3    38  LEU38       0.1561
      3  C         21.0820   38.6780  180.7070 C.2    38  LEU38       0.2260
      4  O         20.1950   39.4580  181.0630 O.2    38  LEU38      -0.2867
      5  CB        21.1010   38.1170  178.2670 C.3    38  LEU38       0.0270
      6  CG        21.6090   38.3590  176.8410 C.3    38  LEU38       0.0019
      7  CD1       20.8810   37.4480  175.8640 C.3    38  LEU38       0.0001
      8  CD2       21.4570   39.8210  176.4230 C.3    38  LEU38       0.0001
      9  N         21.9620   41.5200  182.5010 N.3    41  LEU41      -0.1245
     10  CA        21.2250   42.6530  181.9520 C.3    41  LEU41       0.1561
     11  C         19.8200   42.7340  182.5420 C.2    41  LEU41       0.2260
     12  O         19.3820   43.8090  182.9480 O.2    41  LEU41      -0.2867
     13  CB        21.1750   42.6130  180.4210 C.3    41  LEU41       0.0270
     14  CG        20.4990   43.8150  179.7410 C.3    41  LEU41       0.0019
     15  CD1       21.1430   45.1460  180.1330 C.3    41  LEU41       0.0001
     16  CD2       20.5070   43.6440  178.2350 C.3    41  LEU41       0.0001
     17  N         13.7400   44.0630  180.9750 N.3    48  VAL48      -0.1245
     18  CA        14.4250   43.2880  179.9390 C.3    48  VAL48       0.1561
     19  C         13.9080   41.8490  179.8750 C.2    48  VAL48       0.2260
     20  O         13.7930   41.2840  178.7840 O.2    48  VAL48      -0.2867
     21  CB        15.9700   43.3590  180.1100 C.3    48  VAL48       0.0252
     22  CG1       16.6810   42.3130  179.2850 C.3    48  VAL48       0.0019
     23  CG2       16.4810   44.7460  179.7360 C.3    48  VAL48       0.0019
     24  N         11.2360   41.6440  177.3630 N.3    51  LEU51      -0.1231
     25  CA        11.7960   41.7330  176.0160 C.3    51  LEU51       0.1693
     26  C         12.2670   40.3850  175.4850 C.2    51  LEU51       0.2592
     27  O         12.2150   40.1410  174.2780 O.2    51  LEU51      -0.2718
     28  CB        12.9650   42.7200  175.9940 C.3    51  LEU51       0.0284
     29  CG        12.6860   44.1300  176.5160 C.3    51  LEU51       0.0019
     30  CD1       13.9830   44.9090  176.6670 C.3    51  LEU51       0.0001
     31  CD2       11.7190   44.8620  175.5930 C.3    51  LEU51       0.0001
     32  N         12.7240   39.5160  176.3870 N.am   52  PHE52      -0.1976
     33  CA        13.2450   38.2030  176.0010 C.3    52  PHE52       0.1639
     34  C         12.2900   37.0590  176.3150 C.2    52  PHE52       0.2290
     35  O         12.7160   35.9100  176.4750 O.2    52  PHE52      -0.2864
     36  CB        14.5870   37.9370  176.6790 C.3    52  PHE52       0.0560
     37  CG        15.6880   38.8290  176.2130 C.ar   52  PHE52      -0.0200
     38  CD1       16.2900   39.7160  177.0910 C.ar   52  PHE52      -0.0042
     39  CD2       16.1360   38.7790  174.9020 C.ar   52  PHE52      -0.0042
     40  CE1       17.3200   40.5460  176.6720 C.ar   52  PHE52      -0.0003
     41  CE2       17.1570   39.6060  174.4820 C.ar   52  PHE52      -0.0003
     42  CZ        17.7510   40.4930  175.3720 C.ar   52  PHE52      -0.0000
     43  N          9.9930   35.8440  174.3070 N.3    54  ARG54      -0.1231
     44  CA         9.9930   35.0210  173.0960 C.3    54  ARG54       0.1694
     45  C         11.1410   33.9890  173.0340 C.2    54  ARG54       0.2591
     46  O         10.9830   32.9190  172.4360 O.2    54  ARG54      -0.2718
     47  CB        10.0320   35.9440  171.8650 C.3    54  ARG54       0.0321
     48  CG         9.3360   35.4050  170.6130 C.3    54  ARG54       0.0489
     49  CD        10.1260   34.3420  169.8490 C.3    54  ARG54       0.2205
     50  NE        11.0100   34.8890  168.8160 N.pl3  54  ARG54      -0.0865
     51  CZ        12.0740   34.2600  168.3110 C.cat  54  ARG54       0.5346
     52  NH1       12.4230   33.0490  168.7530 N.pl3  54  ARG54       0.1354
     53  NH2       12.8030   34.8520  167.3680 N.pl3  54  ARG54       0.1354
     54  N         12.2860   34.3070  173.6460 N.am   55  VAL55      -0.1980
     55  CA        13.4320   33.3780  173.6300 C.3    55  VAL55       0.1595
     56  C         13.5500   32.5780  174.9240 C.2    55  VAL55       0.2287
     57  O         14.5280   31.8570  175.1390 O.2    55  VAL55      -0.2864
     58  CB        14.7790   34.0710  173.2620 C.3    55  VAL55       0.0276
     59  CG1       14.8020   34.4410  171.7830 C.3    55  VAL55       0.0022
     60  CG2       15.0510   35.2870  174.1460 C.3    55  VAL55       0.0022
     61  N         19.4390   31.5330  171.3750 N.3    68  HIS68      -0.1241
     62  CA        19.4600   32.9790  171.3390 C.3    68  HIS68       0.1621
     63  C         20.7940   33.5500  171.8310 C.2    68  HIS68       0.2264
     64  O         21.3170   34.5000  171.2460 O.2    68  HIS68      -0.2867
     65  CB        18.3220   33.5510  172.1650 C.3    68  HIS68       0.0745
     66  CG        18.4020   35.0310  172.3070 C.ar   68  HIS68       0.0817
     67  ND1       18.0970   35.8880  171.2730 N.ar   68  HIS68      -0.2268
     68  CD2       18.8130   35.8080  173.3360 C.ar   68  HIS68       0.1154
     69  CE1       18.2840   37.1320  171.6700 C.ar   68  HIS68       0.1986
     70  NE2       18.7160   37.1100  172.9190 N.ar   68  HIS68      -0.2212
     71  N         23.0350   33.3330  169.1340 N.3    71  ARG71      -0.1231
     72  CA        22.7160   34.2770  168.0660 C.3    71  ARG71       0.1694
     73  C         23.3360   35.6440  168.3570 C.2    71  ARG71       0.2591
     74  O         23.9620   36.2490  167.4800 O.2    71  ARG71      -0.2718
     75  CB        21.2030   34.3820  167.8980 C.3    71  ARG71       0.0321
     76  CG        20.7070   34.2110  166.4690 C.3    71  ARG71       0.0489
     77  CD        19.5460   33.2270  166.3490 C.3    71  ARG71       0.2205
     78  NE        18.4970   33.4770  167.3370 N.pl3  71  ARG71      -0.0865
     79  CZ        17.7400   32.5370  167.8910 C.cat  71  ARG71       0.5346
     80  NH1       17.9060   31.2570  167.5730 N.pl3  71  ARG71       0.1354
     81  NH2       16.8170   32.8780  168.7810 N.pl3  71  ARG71       0.1354
     82  N         23.1770   36.1080  169.5970 N.am   72  ILE72      -0.1980
     83  CA        23.7870   37.3630  170.0360 C.3    72  ILE72       0.1595
     84  C         25.3190   37.3180  170.0690 C.2    72  ILE72       0.2287
     85  O         25.9740   38.2710  169.6300 O.2    72  ILE72      -0.2864
     86  CB        23.2620   37.8340  171.4130 C.3    72  ILE72       0.0276
     87  CG1       24.1080   39.0270  171.8900 C.3    72  ILE72       0.0022
     88  CG2       23.2980   36.7090  172.4430 C.3    72  ILE72       0.0022
     89  CD1       23.9680   39.3840  173.4090 C.3    72  ILE72       0.0001
     90  N         26.4760   37.5180  166.7100 N.3    75  GLY75      -0.1210
     91  CA        26.2160   38.8880  166.2860 C.3    75  GLY75       0.1956
     92  C         27.3950   39.7700  166.6480 C.2    75  GLY75       0.2611
     93  O         27.9060   40.5160  165.8050 O.2    75  GLY75      -0.2717
     94  N         27.8320   39.6710  167.9020 N.am   76  LEU76      -0.1979
     95  CA        28.9970   40.4080  168.3680 C.3    76  LEU76       0.1596
     96  C         30.2730   39.9070  167.6890 C.2    76  LEU76       0.2287
     97  O         31.1640   40.7010  167.3740 O.2    76  LEU76      -0.2864
     98  CB        29.1160   40.3320  169.8930 C.3    76  LEU76       0.0297
     99  CG        30.3310   40.9970  170.5540 C.3    76  LEU76       0.0022
    100  CD1       30.4470   42.4870  170.2130 C.3    76  LEU76       0.0001
    101  CD2       30.2690   40.8020  172.0560 C.3    76  LEU76       0.0001
    102  N         30.5110   41.4850  164.1510 N.3    79  ALA79      -0.1245
    103  CA        30.9890   42.8640  164.2030 C.3    79  ALA79       0.1562
    104  C         32.4880   42.9180  164.4480 C.2    79  ALA79       0.2260
    105  O         33.2070   43.6020  163.7110 O.2    79  ALA79      -0.2867
    106  CB        30.2410   43.6620  165.2670 C.3    79  ALA79       0.0290
    107  N         21.6250   44.8020  162.0600 N.3    96  LEU96      -0.1245
    108  CA        21.3140   44.5380  163.4740 C.3    96  LEU96       0.1561
    109  C         20.4260   45.6330  164.0600 C.2    96  LEU96       0.2260
    110  O         19.4760   45.3470  164.8000 O.2    96  LEU96      -0.2867
    111  CB        22.5960   44.3860  164.3000 C.3    96  LEU96       0.0270
    112  CG        23.4080   43.1020  164.0810 C.3    96  LEU96       0.0019
    113  CD1       24.8680   43.2980  164.4780 C.3    96  LEU96       0.0001
    114  CD2       22.7860   41.9360  164.8360 C.3    96  LEU96       0.0001
    115  N         16.9460   45.0490  163.2090 N.3    99  GLN99      -0.1231
    116  CA        16.4240   43.9010  163.9440 C.3    99  GLN99       0.1698
    117  C         15.9880   44.2660  165.3640 C.2    99  GLN99       0.2592
    118  O         15.0600   43.6570  165.8950 O.2    99  GLN99      -0.2718
    119  CB        17.4250   42.7390  163.9600 C.3    99  GLN99       0.0381
    120  CG        17.7150   42.1470  162.5820 C.3    99  GLN99       0.0905
    121  CD        18.6300   40.9340  162.6460 C.2    99  GLN99       0.2608
    122  OE1       19.7790   41.0330  163.0840 O.2    99  GLN99      -0.2717
    123  NE2       18.1260   39.7900  162.1970 N.am   99  GLN99      -0.0878
    124  N         16.6520   45.2510  165.9730 N.am  100  HIS100     -0.1976
    125  CA        16.2790   45.7170  167.3170 C.3   100  HIS100      0.1656
    126  C         15.2500   46.8360  167.2650 C.2   100  HIS100      0.2291
    127  O         14.4390   46.9860  168.1820 O.2   100  HIS100     -0.2864
    128  CB        17.5040   46.1620  168.1210 C.3   100  HIS100      0.0771
    129  CG        18.4290   45.0400  168.4650 C.ar  100  HIS100      0.0820
    130  ND1       19.3530   44.5470  167.5700 N.ar  100  HIS100     -0.2267
    131  CD2       18.5570   44.2970  169.5890 C.ar  100  HIS100      0.1154
    132  CE1       20.0140   43.5490  168.1280 C.ar  100  HIS100      0.1986
    133  NE2       19.5530   43.3810  169.3550 N.ar  100  HIS100     -0.2212
    134  N         11.7250   45.7410  167.6160 N.3   103  ARG103     -0.1245
    135  CA        11.3420   45.1330  168.8890 C.3   103  ARG103      0.1563
    136  C         10.8620   46.2190  169.8420 C.2   103  ARG103      0.2260
    137  O         11.6350   47.1100  170.2020 O.2   103  ARG103     -0.2867
    138  CB        12.5220   44.3710  169.5010 C.3   103  ARG103      0.0307
    139  CG        13.2930   43.4930  168.5100 C.3   103  ARG103      0.0489
    140  CD        12.4800   42.3570  167.9060 C.3   103  ARG103      0.2205
    141  NE        11.8750   41.5510  168.9620 N.pl3 103  ARG103     -0.0865
    142  CZ        11.1600   40.4500  168.7700 C.cat 103  ARG103      0.5346
    143  NH1       10.9330   39.9930  167.5440 N.pl3 103  ARG103      0.1354
    144  NH2       10.6630   39.8020  169.8170 N.pl3 103  ARG103      0.1354
    145  N         12.8660   47.6930  173.6760 N.3   106  VAL106     -0.1245
    146  CA        14.3270   47.7930  173.6040 C.3   106  VAL106      0.1561
    147  C         14.7440   49.2560  173.4250 C.2   106  VAL106      0.2260
    148  O         14.3230   49.9030  172.4620 O.2   106  VAL106     -0.2867
    149  CB        14.8820   46.9440  172.4210 C.3   106  VAL106      0.0252
    150  CG1       16.3850   47.1540  172.2450 C.3   106  VAL106      0.0019
    151  CG2       14.5770   45.4650  172.6240 C.3   106  VAL106      0.0019
    152  N         19.3150   50.3490  177.5800 N.3   110  HIS110     -0.1226
    153  CA        19.6620   48.9250  177.6260 C.3   110  HIS110      0.1752
    154  C         21.0520   48.6330  177.0430 C.2   110  HIS110      0.2596
    155  O         21.8370   47.8760  177.6280 O.2   110  HIS110     -0.2718
    156  CB        18.5810   48.0920  176.9080 C.3   110  HIS110      0.0759
    157  CG        17.2220   48.1870  177.5410 C.ar  110  HIS110      0.0818
    158  ND1       16.0480   47.9660  176.8470 N.ar  110  HIS110     -0.2268
    159  CD2       16.8540   48.4850  178.8110 C.ar  110  HIS110      0.1154
    160  CE1       15.0200   48.1180  177.6650 C.ar  110  HIS110      0.1986
    161  NE2       15.4820   48.4330  178.8620 N.ar  110  HIS110     -0.2212
    162  N         21.3520   49.2470  175.9040 N.am  111  PHE111     -0.1976
    163  CA        22.6510   49.0860  175.2640 C.3   111  PHE111      0.1639
    164  C         23.7930   49.7300  176.0330 C.2   111  PHE111      0.2290
    165  O         24.9430   49.2990  175.9120 O.2   111  PHE111     -0.2864
    166  CB        22.5990   49.6040  173.8320 C.3   111  PHE111      0.0560
    167  CG        22.0500   48.6070  172.8770 C.ar  111  PHE111     -0.0200
    168  CD1       20.6890   48.3120  172.8680 C.ar  111  PHE111     -0.0042
    169  CD2       22.8930   47.9210  172.0160 C.ar  111  PHE111     -0.0042
    170  CE1       20.1710   47.3630  171.9940 C.ar  111  PHE111     -0.0003
    171  CE2       22.3880   46.9730  171.1390 C.ar  111  PHE111     -0.0003
    172  CZ        21.0230   46.6940  171.1260 C.ar  111  PHE111     -0.0000
    173  N         24.4680   47.2100  178.8700 N.3   114  PHE114     -0.1241
    174  CA        25.0880   46.0430  178.2670 C.3   114  PHE114      0.1605
    175  C         26.5760   46.2890  178.0500 C.2   114  PHE114      0.2264
    176  O         27.3970   45.4400  178.3950 O.2   114  PHE114     -0.2867
    177  CB        24.3860   45.6960  176.9580 C.3   114  PHE114      0.0534
    178  CG        24.8140   44.3890  176.3600 C.ar  114  PHE114     -0.0203
    179  CD1       25.6370   44.3680  175.2420 C.ar  114  PHE114     -0.0042
    180  CD2       24.3780   43.1760  176.8950 C.ar  114  PHE114     -0.0042
    181  CE1       26.0350   43.1590  174.6670 C.ar  114  PHE114     -0.0003
    182  CE2       24.7700   41.9560  176.3280 C.ar  114  PHE114     -0.0003
    183  CZ        25.6020   41.9500  175.2080 C.ar  114  PHE114     -0.0000
    184  N         29.4420   44.0790  179.6830 N.3   118  LEU118     -0.1245
    185  CA        30.3760   43.4800  178.7450 C.3   118  LEU118      0.1561
    186  C         31.8160   43.8640  179.0860 C.2   118  LEU118      0.2260
    187  O         32.7100   43.0160  179.0440 O.2   118  LEU118     -0.2867
    188  CB        30.0070   43.8930  177.3190 C.3   118  LEU118      0.0270
    189  CG        30.6430   43.2020  176.1120 C.3   118  LEU118      0.0019
    190  CD1       30.7130   41.6890  176.2810 C.3   118  LEU118      0.0001
    191  CD2       29.8650   43.5620  174.8610 C.3   118  LEU118      0.0001
    192  N         33.8250   48.7850  171.3140 N.3   138  LEU138     -0.1245
    193  CA        32.4940   48.3730  171.7420 C.3   138  LEU138      0.1561
    194  C         31.4870   49.5160  171.6600 C.2   138  LEU138      0.2260
    195  O         30.3290   49.2840  171.3050 O.2   138  LEU138     -0.2867
    196  CB        32.5150   47.7720  173.1500 C.3   138  LEU138      0.0270
    197  CG        33.0280   46.3340  173.2620 C.3   138  LEU138      0.0019
    198  CD1       33.1810   45.9230  174.7170 C.3   138  LEU138      0.0001
    199  CD2       32.1100   45.3690  172.5170 C.3   138  LEU138      0.0001
    200  N         30.2790   50.0240  167.9960 N.3   141  ILE141     -0.1231
    201  CA        29.3660   48.9370  167.6640 C.3   141  ILE141      0.1692
    202  C         28.0270   49.0940  168.3800 C.2   141  ILE141      0.2591
    203  O         26.9780   49.0740  167.7350 O.2   141  ILE141     -0.2718
    204  CB        30.0150   47.5730  168.0160 C.3   141  ILE141      0.0266
    205  CG1       31.2310   47.3130  167.1180 C.3   141  ILE141      0.0019
    206  CG2       28.9980   46.4380  167.8950 C.3   141  ILE141      0.0020
    207  CD1       32.1140   46.1490  167.5630 C.3   141  ILE141      0.0001
    208  N         28.0630   49.2610  169.7010 N.am  142  LEU142     -0.1980
    209  CA        26.8310   49.3630  170.4940 C.3   142  LEU142      0.1596
    210  C         25.9760   50.5480  170.0790 C.2   142  LEU142      0.2287
    211  O         24.7460   50.4720  170.1010 O.2   142  LEU142     -0.2864
    212  CB        27.1360   49.4580  171.9950 C.3   142  LEU142      0.0297
    213  CG        27.7770   48.2380  172.6640 C.3   142  LEU142      0.0022
    214  CD1       28.3050   48.6230  174.0490 C.3   142  LEU142      0.0001
    215  CD2       26.7910   47.0830  172.7570 C.3   142  LEU142      0.0001
    216  N         24.2010   49.8920  166.5740 N.3   145  ILE145     -0.1245
    217  CA        23.0770   48.9770  166.7570 C.3   145  ILE145      0.1561
    218  C         21.8700   49.6550  167.4270 C.2   145  ILE145      0.2260
    219  O         20.7300   49.2790  167.1610 O.2   145  ILE145     -0.2867
    220  CB        23.5120   47.6950  167.5240 C.3   145  ILE145      0.0252
    221  CG1       24.6820   47.0140  166.8010 C.3   145  ILE145      0.0019
    222  CG2       22.3310   46.7110  167.6520 C.3   145  ILE145      0.0019
    223  CD1       25.2320   45.7670  167.5020 C.3   145  ILE145      0.0001
@<TRIPOS>BOND
     1   107   108    1
     2   123   121   am
     3   120   121    1
     4   120   119    1
     5   121   122    2
     6   115   116    1
     7   108   109    1
     8   108   111    1
     9   105   104    2
    10   116   119    1
    11   116   117    1
    12   109   110    2
    13   112   111    1
    14   112   113    1
    15   112   114    1
    16   102   103    1
    17   103   104    1
    18   103   106    1
    19   117   118    2
    20   117   124   am
    21    93    92    2
    22   124   125    1
    23    91    92    1
    24    91    90    1
    25    77    76    1
    26    77    78    1
    27    76    75    1
    28   216   217    1
    29    92    94   am
    30   217   218    1
    31   217   220    1
    32   221   223    1
    33   221   220    1
    34   205   207    1
    35   205   204    1
    36   219   218    2
    37   126   125    1
    38   126   127    2
    39   125   128    1
    40    78    79    2
    41    53    51    1
    42    97    96    2
    43    74    73    2
    44   220   222    1
    45   143   142    1
    46   130   132   ar
    47   130   129   ar
    48    80    79    1
    49   134   135    1
    50   201   200    1
    51   201   204    1
    52   201   202    1
    53    96    95    1
    54   203   202    2
    55    79    81    1
    56   206   204    1
    57    75    72    1
    58    94    95    1
    59   140   139    1
    60   140   141    1
    61    72    73    1
    62    72    71    1
    63   128   129    1
    64   132   133   ar
    65    51    52    1
    66    51    50    2
    67    73    82   am
    68    95    98    1
    69   202   208   am
    70   129   131   ar
    71   139   138    1
    72   142   141    2
    73   142   144    1
    74    50    49    1
    75   135   138    1
    76   135   136    1
    77   133   131   ar
    78    82    83    1
    79    85    84    2
    80   208   209    1
    81   136   137    2
    82    49    48    1
    83    98    99    1
    84    83    84    1
    85    83    86    1
    86   210   211    2
    87   210   209    1
    88   100    99    1
    89   209   212    1
    90    99   101    1
    91    48    47    1
    92   172   171   ar
    93   172   170   ar
    94   171   169   ar
    95    64    63    2
    96    67    69   ar
    97    67    66   ar
    98   195   194    2
    99   192   193    1
   100    62    61    1
   101    62    63    1
   102    62    65    1
   103    86    87    1
   104    86    88    1
   105   194   193    1
   106    69    70   ar
   107   193   196    1
   108    59    58    1
   109    47    44    1
   110    87    89    1
   111   170   168   ar
   112   212   213    1
   113   169   167   ar
   114    65    66    1
   115   150   149    1
   116    66    68   ar
   117   149   151    1
   118   149   146    1
   119    46    45    2
   120   148   147    2
   121   199   197    1
   122   213   215    1
   123   213   214    1
   124   168   167   ar
   125   167   166    1
   126    70    68   ar
   127    45    44    1
   128    45    54   am
   129    44    43    1
   130   196   197    1
   131   197   198    1
   132    58    55    1
   133    58    60    1
   134   147   146    1
   135   146   145    1
   136    55    54    1
   137    55    56    1
   138   166   163    1
   139    27    26    2
   140    41    39   ar
   141    41    42   ar
   142   181   183   ar
   143   181   179   ar
   144   191   189    1
   145    39    37   ar
   146    56    57    2
   147   183   182   ar
   148   179   178   ar
   149   163   162    1
   150   163   164    1
   151    42    40   ar
   152    26    25    1
   153    26    32   am
   154    31    29    1
   155     7     6    1
   156   162   154   am
   157   165   164    2
   158    28    25    1
   159    28    29    1
   160    33    34    1
   161    33    32    1
   162    33    36    1
   163    25    24    1
   164   189   190    1
   165   189   188    1
   166    37    36    1
   167    37    38   ar
   168    34    35    2
   169   182   180   ar
   170   178   180   ar
   171   178   177    1
   172     8     6    1
   173    29    30    1
   174    40    38   ar
   175     6     5    1
   176   158   157   ar
   177   158   160   ar
   178   156   157    1
   179   156   153    1
   180   177   174    1
   181   154   153    1
   182   154   155    2
   183   188   185    1
   184   157   159   ar
   185   152   153    1
   186   160   161   ar
   187   175   174    1
   188   175   176    2
   189    16    14    1
   190     5     2    1
   191   174   173    1
   192   185   186    1
   193   185   184    1
   194    20    19    2
   195   159   161   ar
   196   187   186    2
   197    22    21    1
   198     2     1    1
   199     2     3    1
   200    23    21    1
   201    14    15    1
   202    14    13    1
   203    19    18    1
   204    18    21    1
   205    18    17    1
   206    13    10    1
   207     3     4    2
   208    10     9    1
   209    10    11    1
   210    11    12    2
