@<TRIPOS>MOLECULE
tmp/1x9jG01.pdb
 85 79 0 0 0
SMALL
GASTEIGER

@<TRIPOS>ATOM
      1  N         49.2170   67.1850   -0.7900 N.3    13  SER13      -0.1217
      2  CA        48.5770   65.8870   -0.9740 C.3    13  SER13       0.1889
      3  C         48.3680   65.5380   -2.4420 C.2    13  SER13       0.2288
      4  O         48.7270   66.3000   -3.3380 O.2    13  SER13      -0.2866
      5  CB        47.2250   65.8550   -0.2560 C.3    13  SER13       0.2089
      6  OG        46.3070   66.7510   -0.8600 O.3    13  SER13      -0.2183
      7  N         45.1880   63.3960   -4.5330 N.3    15  LYS15      -0.1245
      8  CA        43.9640   62.6070   -4.5160 C.3    15  LYS15       0.1561
      9  C         43.7110   61.8920   -5.8350 C.2    15  LYS15       0.2260
     10  O         43.8620   62.4690   -6.9110 O.2    15  LYS15      -0.2867
     11  CB        42.7660   63.4970   -4.1710 C.3    15  LYS15       0.0271
     12  CG        42.6750   63.8440   -2.6980 C.3    15  LYS15       0.0035
     13  CD        41.5000   64.7590   -2.3960 C.3    15  LYS15       0.0206
     14  CE        41.7400   66.1680   -2.9220 C.3    15  LYS15       0.1093
     15  NZ        42.9320   66.8020   -2.2880 N.3    15  LYS15      -0.1314
     16  N         43.3810   59.7640   -0.6990 N.3    29  ASN29      -0.1240
     17  CA        44.1370   60.9990   -0.5920 C.3    29  ASN29       0.1653
     18  C         45.4680   60.7260    0.0830 C.2    29  ASN29       0.2266
     19  O         45.5200   60.4670    1.2870 O.2    29  ASN29      -0.2867
     20  CB        43.3530   62.0280    0.2250 C.3    29  ASN29       0.1155
     21  CG        44.0580   63.3700    0.3040 C.2    29  ASN29       0.2627
     22  OD1       45.2490   63.4400    0.6060 O.2    29  ASN29      -0.2716
     23  ND2       43.3240   64.4430    0.0380 N.am   29  ASN29      -0.0877
     24  N         36.1410   80.1010   -2.0840 N.3   182  HIS182     -0.1241
     25  CA        36.8030   78.8340   -1.8200 C.3   182  HIS182      0.1621
     26  C         37.9030   79.1110   -0.8040 C.2   182  HIS182      0.2264
     27  O         38.8560   79.8350   -1.0970 O.2   182  HIS182     -0.2867
     28  CB        37.4210   78.2680   -3.0900 C.3   182  HIS182      0.0745
     29  CG        38.0540   76.9280   -2.8950 C.ar  182  HIS182      0.0817
     30  ND1       37.3770   75.7470   -3.1070 N.ar  182  HIS182     -0.2268
     31  CD2       39.2900   76.5820   -2.4640 C.ar  182  HIS182      0.1154
     32  CE1       38.1700   74.7300   -2.8190 C.ar  182  HIS182      0.1986
     33  NE2       39.3360   75.2100   -2.4260 N.ar  182  HIS182     -0.2212
     34  N         40.7780   77.4370    1.2470 N.3   184  GLY184     -0.1210
     35  CA        41.6500   76.3030    1.5010 C.3   184  GLY184      0.1956
     36  C         43.0840   76.7760    1.6130 C.2   184  GLY184      0.2612
     37  O         43.3270   77.8880    2.0760 O.2   184  GLY184     -0.2717
     38  N         44.0350   75.9440    1.2000 N.am  185  GLY185     -0.1956
     39  CA        45.4290   76.3490    1.2590 C.3   185  GLY185      0.1869
     40  C         45.5320   77.6700    0.5270 C.2   185  GLY185      0.2309
     41  O         46.3150   78.5530    0.8780 O.2   185  GLY185     -0.2863
     42  N         35.1470   74.9980    0.1840 N.3   303  GLY303     -0.1210
     43  CA        36.5550   74.7500    0.4250 C.3   303  GLY303      0.1956
     44  C         36.7940   74.0270    1.7360 C.2   303  GLY303      0.2612
     45  O         35.8600   73.8000    2.5040 O.2   303  GLY303     -0.2717
     46  N         38.0490   73.6730    1.9930 N.am  304  GLY304     -0.1956
     47  CA        38.3910   72.9660    3.2130 C.3   304  GLY304      0.1869
     48  C         38.0490   73.6970    4.4960 C.2   304  GLY304      0.2309
     49  O         37.4860   73.1070    5.4200 O.2   304  GLY304     -0.2863
     50  N         34.7430   73.8410    6.7130 N.3   307  HIS307     -0.1241
     51  CA        34.4290   72.8680    7.7560 C.3   307  HIS307      0.1621
     52  C         34.4430   73.4920    9.1540 C.2   307  HIS307      0.2264
     53  O         33.5900   73.1810    9.9880 O.2   307  HIS307     -0.2867
     54  CB        35.4250   71.7050    7.7160 C.3   307  HIS307      0.0745
     55  CG        35.2140   70.7600    6.5730 C.ar  307  HIS307      0.0817
     56  ND1       34.0530   70.0370    6.4090 N.ar  307  HIS307     -0.2268
     57  CD2       36.0270   70.4010    5.5510 C.ar  307  HIS307      0.1154
     58  CE1       34.1590   69.2720    5.3360 C.ar  307  HIS307      0.1986
     59  NE2       35.3470   69.4740    4.7980 N.ar  307  HIS307     -0.2212
     60  N         30.8610   72.6000    2.6890 N.3   330  PRO330     -0.2102
     61  CA        32.1550   72.1910    3.2440 C.3   330  PRO330      0.1504
     62  C         32.9970   71.3130    2.3270 C.2   330  PRO330      0.2576
     63  O         32.5070   70.3310    1.7750 O.2   330  PRO330     -0.2718
     64  CB        31.7620   71.4620    4.5210 C.3   330  PRO330      0.0282
     65  CG        30.5390   72.1940    4.9460 C.3   330  PRO330      0.0208
     66  CD        29.7790   72.3380    3.6530 C.3   330  PRO330      0.0893
     67  N         34.2670   71.6710    2.1750 N.am  331  GLY331     -0.1943
     68  CA        35.1640   70.8990    1.3340 C.3   331  GLY331      0.2014
     69  C         34.9800   71.1480   -0.1490 C.2   331  GLY331      0.2639
     70  O         34.4400   72.1770   -0.5480 O.2   331  GLY331     -0.2714
     71  N         35.4400   70.2070   -0.9670 N.am  332  SER332     -0.1949
     72  CA        35.3160   70.3240   -2.4160 C.3   332  SER332      0.1924
     73  C         35.1960   68.9440   -3.0420 C.2   332  SER332      0.2314
     74  O         35.6300   67.9480   -2.4650 O.2   332  SER332     -0.2863
     75  CB        36.5280   71.0400   -3.0070 C.3   332  SER332      0.2116
     76  OG        37.7010   70.2710   -2.8240 O.3   332  SER332     -0.2180
     77  N         36.4390   67.9030   -6.2210 N.3   334  GLU334     -0.1245
     78  CA        37.2660   67.9910   -7.4200 C.3   334  GLU334      0.1567
     79  C         37.1130   66.7120   -8.2390 C.2   334  GLU334      0.2260
     80  O         36.9520   66.7560   -9.4550 O.2   334  GLU334     -0.2867
     81  CB        38.7300   68.1580   -7.0160 C.3   334  GLU334      0.0388
     82  CG        38.9360   68.9530   -5.7320 C.3   334  GLU334      0.1160
     83  CD        39.0160   70.4470   -5.9640 C.2   334  GLU334      0.3649
     84  OE1       38.2070   70.9700   -6.7560 O.co2 334  GLU334     -0.2457
     85  OE2       39.8860   71.0980   -5.3430 O.co2 334  GLU334     -0.2457
@<TRIPOS>BOND
     1    80    79    2
     2    79    78    1
     3    78    81    1
     4    78    77    1
     5    81    82    1
     6    10     9    2
     7    84    83   ar
     8    83    82    1
     9    83    85   ar
    10     9     8    1
    11     7     8    1
    12     8    11    1
    13    11    12    1
    14     4     3    2
    15    30    29   ar
    16    30    32   ar
    17    28    29    1
    18    28    25    1
    19    73    74    2
    20    73    72    1
    21    75    76    1
    22    75    72    1
    23    14    13    1
    24    14    15    1
    25    29    31   ar
    26    32    33   ar
    27    12    13    1
    28    31    33   ar
    29     3     2    1
    30    72    71    1
    31    24    25    1
    32    25    26    1
    33    27    26    2
    34     2     1    1
    35     2     5    1
    36    71    69   am
    37     6     5    1
    38    16    17    1
    39    17    18    1
    40    17    20    1
    41    70    69    2
    42    69    68    1
    43    23    21   am
    44    18    19    2
    45    42    43    1
    46    20    21    1
    47    21    22    2
    48    43    44    1
    49    40    41    2
    50    40    39    1
    51    38    39    1
    52    38    36   am
    53    34    35    1
    54    68    67    1
    55    35    36    1
    56    36    37    2
    57    44    46   am
    58    44    45    2
    59    63    62    2
    60    46    47    1
    61    67    62   am
    62    62    61    1
    63    60    61    1
    64    60    66    1
    65    47    48    1
    66    61    64    1
    67    66    65    1
    68    48    49    2
    69    64    65    1
    70    59    58   ar
    71    59    57   ar
    72    58    56   ar
    73    57    55   ar
    74    56    55   ar
    75    55    54    1
    76    50    51    1
    77    54    51    1
    78    51    52    1
    79    52    53    2
