@<TRIPOS>MOLECULE
tmp/1x9jG00.pdb
 129 122 0 0 0
SMALL
GASTEIGER

@<TRIPOS>ATOM
      1  N         48.1570   67.8830   -5.3440 N.3    10  GLY10      -0.1210
      2  CA        48.0450   69.0500   -4.4890 C.3    10  GLY10       0.1956
      3  C         49.3930   69.4810   -3.9440 C.2    10  GLY10       0.2612
      4  O         50.3910   68.7750   -4.1080 O.2    10  GLY10      -0.2717
      5  N         49.4250   70.6400   -3.2940 N.am   11  SER11      -0.1952
      6  CA        50.6570   71.1680   -2.7190 C.3    11  SER11       0.1924
      7  C         51.2430   70.2190   -1.6790 C.2    11  SER11       0.2314
      8  O         52.4560   70.0100   -1.6270 O.2    11  SER11      -0.2863
      9  CB        50.3980   72.5280   -2.0680 C.3    11  SER11       0.2116
     10  OG        49.8730   73.4520   -3.0020 O.3    11  SER11      -0.2180
     11  N         43.3950   67.8030  -12.9160 N.3    74  ARG74      -0.1245
     12  CA        43.0380   69.2030  -12.7660 C.3    74  ARG74       0.1563
     13  C         43.9210   70.0160  -13.7010 C.2    74  ARG74       0.2260
     14  O         45.0550   69.6290  -13.9880 O.2    74  ARG74      -0.2867
     15  CB        43.2460   69.6570  -11.3170 C.3    74  ARG74       0.0307
     16  CG        42.2980   70.7740  -10.8860 C.3    74  ARG74       0.0489
     17  CD        42.5590   71.2410   -9.4530 C.3    74  ARG74       0.2205
     18  NE        41.4940   72.1130   -8.9560 N.pl3  74  ARG74      -0.0865
     19  CZ        41.1010   73.2410   -9.5470 C.cat  74  ARG74       0.5346
     20  NH1       41.6830   73.6490  -10.6670 N.pl3  74  ARG74       0.1354
     21  NH2       40.1210   73.9630   -9.0190 N.pl3  74  ARG74       0.1354
     22  N         53.4470   74.9120   -9.6700 N.3   104  HIS104     -0.1241
     23  CA        52.4090   74.4750   -8.7380 C.3   104  HIS104      0.1621
     24  C         52.1510   72.9720   -8.9210 C.2   104  HIS104      0.2264
     25  O         52.0530   72.5040  -10.0520 O.2   104  HIS104     -0.2867
     26  CB        51.1320   75.2840   -9.0150 C.3   104  HIS104      0.0745
     27  CG        50.0470   75.1000   -7.9970 C.ar  104  HIS104      0.0817
     28  ND1       49.3190   73.9360   -7.8820 N.ar  104  HIS104     -0.2268
     29  CD2       49.5540   75.9450   -7.0600 C.ar  104  HIS104      0.1154
     30  CE1       48.4240   74.0720   -6.9190 C.ar  104  HIS104      0.1986
     31  NE2       48.5460   75.2820   -6.4040 N.ar  104  HIS104     -0.2212
     32  N         49.8240   71.3700   -9.1130 N.3   106  SER106     -0.1217
     33  CA        48.7250   71.1870  -10.0520 C.3   106  SER106      0.1889
     34  C         49.2130   70.8870  -11.4730 C.2   106  SER106      0.2288
     35  O         48.5510   70.1720  -12.2280 O.2   106  SER106     -0.2866
     36  CB        47.8500   72.4430  -10.0670 C.3   106  SER106      0.2089
     37  OG        46.8220   72.3400  -11.0340 O.3   106  SER106     -0.2183
     38  N         42.8290   75.9620  -13.5560 N.3   130  VAL130     -0.1245
     39  CA        42.9410   76.9780  -12.5300 C.3   130  VAL130      0.1561
     40  C         43.1200   78.3400  -13.1800 C.2   130  VAL130      0.2260
     41  O         42.9870   79.3700  -12.5250 O.2   130  VAL130     -0.2867
     42  CB        44.1580   76.6850  -11.6170 C.3   130  VAL130      0.0252
     43  CG1       45.4540   76.9050  -12.3860 C.3   130  VAL130      0.0019
     44  CG2       44.1180   77.5680  -10.3930 C.3   130  VAL130      0.0019
     45  N         42.1350   80.9140  -10.1220 N.3   153  PHE153     -0.1227
     46  CA        41.4170   80.4680   -8.9320 C.3   153  PHE153      0.1736
     47  C         41.0610   78.9850   -8.9810 C.2   153  PHE153      0.2595
     48  O         41.5360   78.2450   -9.8380 O.2   153  PHE153     -0.2718
     49  CB        40.1320   81.2820   -8.7670 C.3   153  PHE153      0.0547
     50  CG        39.1280   81.0710   -9.8720 C.ar  153  PHE153     -0.0202
     51  CD1       37.8420   80.6240   -9.5790 C.ar  153  PHE153     -0.0042
     52  CD2       39.4600   81.3310  -11.2000 C.ar  153  PHE153     -0.0042
     53  CE1       36.8990   80.4380  -10.5920 C.ar  153  PHE153     -0.0003
     54  CE2       38.5280   81.1490  -12.2200 C.ar  153  PHE153     -0.0003
     55  CZ        37.2430   80.7020  -11.9140 C.ar  153  PHE153     -0.0000
     56  N         40.2130   78.5600   -8.0510 N.am  154  HIS154     -0.1975
     57  CA        39.7800   77.1710   -7.9940 C.3   154  HIS154      0.1656
     58  C         38.5650   77.0110   -8.8980 C.2   154  HIS154      0.2291
     59  O         37.4770   76.6750   -8.4380 O.2   154  HIS154     -0.2864
     60  CB        39.4140   76.7890   -6.5590 C.3   154  HIS154      0.0771
     61  CG        40.4450   77.1860   -5.5500 C.ar  154  HIS154      0.0820
     62  ND1       40.6570   78.4980   -5.1800 N.ar  154  HIS154     -0.2267
     63  CD2       41.3360   76.4480   -4.8460 C.ar  154  HIS154      0.1154
     64  CE1       41.6320   78.5500   -4.2900 C.ar  154  HIS154      0.1986
     65  NE2       42.0610   77.3200   -4.0690 N.ar  154  HIS154     -0.2212
     66  N         36.1410   80.1010   -2.0840 N.3   182  HIS182     -0.1241
     67  CA        36.8030   78.8340   -1.8200 C.3   182  HIS182      0.1621
     68  C         37.9030   79.1110   -0.8040 C.2   182  HIS182      0.2264
     69  O         38.8560   79.8350   -1.0970 O.2   182  HIS182     -0.2867
     70  CB        37.4210   78.2680   -3.0900 C.3   182  HIS182      0.0745
     71  CG        38.0540   76.9280   -2.8950 C.ar  182  HIS182      0.0817
     72  ND1       37.3770   75.7470   -3.1070 N.ar  182  HIS182     -0.2268
     73  CD2       39.2900   76.5820   -2.4640 C.ar  182  HIS182      0.1154
     74  CE1       38.1700   74.7300   -2.8190 C.ar  182  HIS182      0.1986
     75  NE2       39.3360   75.2100   -2.4260 N.ar  182  HIS182     -0.2212
     76  N         40.7780   77.4370    1.2470 N.3   184  GLY184     -0.1210
     77  CA        41.6500   76.3030    1.5010 C.3   184  GLY184      0.1956
     78  C         43.0840   76.7760    1.6130 C.2   184  GLY184      0.2612
     79  O         43.3270   77.8880    2.0760 O.2   184  GLY184     -0.2717
     80  N         44.0350   75.9440    1.2000 N.am  185  GLY185     -0.1942
     81  CA        45.4290   76.3490    1.2590 C.3   185  GLY185      0.2014
     82  C         45.5320   77.6700    0.5270 C.2   185  GLY185      0.2639
     83  O         46.3150   78.5530    0.8780 O.2   185  GLY185     -0.2714
     84  N         44.7140   77.7860   -0.5120 N.am  186  GLY186     -0.1954
     85  CA        44.6530   78.9980   -1.3010 C.3   186  GLY186      0.1869
     86  C         43.2270   79.5020   -1.1680 C.2   186  GLY186      0.2309
     87  O         42.3040   78.7060   -0.9960 O.2   186  GLY186     -0.2863
     88  N         44.7120   83.7510   -6.8450 N.3   203  ALA203     -0.1231
     89  CA        45.0150   82.8670   -5.7270 C.3   203  ALA203      0.1694
     90  C         46.4520   82.3510   -5.6540 C.2   203  ALA203      0.2591
     91  O         46.7750   81.5570   -4.7730 O.2   203  ALA203     -0.2718
     92  CB        44.0490   81.6940   -5.7380 C.3   203  ALA203      0.0304
     93  N         47.3160   82.7940   -6.5610 N.am  204  LEU204     -0.1980
     94  CA        48.7060   82.3410   -6.5490 C.3   204  LEU204      0.1596
     95  C         49.7390   83.4560   -6.4220 C.2   204  LEU204      0.2287
     96  O         50.5920   83.4200   -5.5380 O.2   204  LEU204     -0.2864
     97  CB        49.0090   81.5220   -7.8040 C.3   204  LEU204      0.0297
     98  CG        48.4160   80.1130   -7.8370 C.3   204  LEU204      0.0022
     99  CD1       48.7060   79.4680   -9.1740 C.3   204  LEU204      0.0001
    100  CD2       49.0030   79.2850   -6.7060 C.3   204  LEU204      0.0001
    101  N         48.4740   79.5080    4.5910 N.3   213  GLU213     -0.1231
    102  CA        49.8710   79.3520    4.1950 C.3   213  GLU213      0.1699
    103  C         50.3390   80.3660    3.1470 C.2   213  GLU213      0.2592
    104  O         51.3240   80.1330    2.4500 O.2   213  GLU213     -0.2718
    105  CB        50.1030   77.9320    3.6740 C.3   213  GLU213      0.0402
    106  CG        49.1960   77.5410    2.5190 C.3   213  GLU213      0.1161
    107  CD        49.3920   76.1020    2.0790 C.2   213  GLU213      0.3649
    108  OE1       49.1950   75.1910    2.9110 O.co2 213  GLU213     -0.2457
    109  OE2       49.7430   75.8870    0.9010 O.co2 213  GLU213     -0.2457
    110  N         49.6360   81.4900    3.0440 N.am  214  ARG214     -0.1980
    111  CA        49.9890   82.5390    2.0870 C.3   214  ARG214      0.1597
    112  C         49.7580   83.9270    2.6840 C.2   214  ARG214      0.2287
    113  O         48.8550   84.1180    3.5030 O.2   214  ARG214     -0.2864
    114  CB        49.1730   82.3720    0.8040 C.3   214  ARG214      0.0334
    115  CG        49.5480   81.1360    0.0060 C.3   214  ARG214      0.0492
    116  CD        48.5730   80.8770   -1.1250 C.3   214  ARG214      0.2205
    117  NE        48.9970   79.7520   -1.9520 N.pl3 214  ARG214     -0.0865
    118  CZ        48.2430   79.1870   -2.8900 C.cat 214  ARG214      0.5346
    119  NH1       47.0190   79.6400   -3.1210 N.pl3 214  ARG214      0.1354
    120  NH2       48.7140   78.1720   -3.6010 N.pl3 214  ARG214      0.1354
    121  N         36.4390   67.9030   -6.2210 N.3   334  GLU334     -0.1245
    122  CA        37.2660   67.9910   -7.4200 C.3   334  GLU334      0.1567
    123  C         37.1130   66.7120   -8.2390 C.2   334  GLU334      0.2260
    124  O         36.9520   66.7560   -9.4550 O.2   334  GLU334     -0.2867
    125  CB        38.7300   68.1580   -7.0160 C.3   334  GLU334      0.0388
    126  CG        38.9360   68.9530   -5.7320 C.3   334  GLU334      0.1160
    127  CD        39.0160   70.4470   -5.9640 C.2   334  GLU334      0.3649
    128  OE1       38.2070   70.9700   -6.7560 O.co2 334  GLU334     -0.2457
    129  OE2       39.8860   71.0980   -5.3430 O.co2 334  GLU334     -0.2457
@<TRIPOS>BOND
     1    14    13    2
     2    13    12    1
     3    38    39    1
     4    40    39    1
     5    40    41    2
     6    11    12    1
     7    12    15    1
     8    39    42    1
     9    43    42    1
    10    35    34    2
    11    54    55   ar
    12    54    52   ar
    13    55    53   ar
    14    42    44    1
    15    34    33    1
    16    15    16    1
    17    52    50   ar
    18    37    36    1
    19    16    17    1
    20    20    19    1
    21    53    51   ar
    22    45    46    1
    23    36    33    1
    24    25    24    2
    25    33    32    1
    26    50    51   ar
    27    50    49    1
    28    48    47    2
    29    22    23    1
    30    19    21    1
    31    19    18    2
    32   124   123    2
    33    17    18    1
    34    99    98    1
    35    26    23    1
    36    26    27    1
    37    47    46    1
    38    47    56   am
    39    46    49    1
    40    24    23    1
    41    58    59    2
    42    58    57    1
    43   123   122    1
    44    56    57    1
    45    27    28   ar
    46    27    29   ar
    47    57    60    1
    48    28    30   ar
    49    98    97    1
    50    98   100    1
    51    97    94    1
    52   122   125    1
    53   122   121    1
    54    29    31   ar
    55   125   126    1
    56    30    31   ar
    57    88    89    1
    58   128   127   ar
    59    93    94    1
    60    93    90   am
    61    60    61    1
    62    94    95    1
    63    95    96    2
    64   127   126    1
    65   127   129   ar
    66    92    89    1
    67    89    90    1
    68    90    91    2
    69    61    62   ar
    70    61    63   ar
    71     1     2    1
    72    62    64   ar
    73    63    65   ar
    74     2     3    1
    75    64    65   ar
    76     4     3    2
    77     3     5   am
    78   120   118    1
    79     5     6    1
    80   119   118    1
    81    72    71   ar
    82    72    74   ar
    83    70    71    1
    84    70    67    1
    85    10     9    1
    86    71    73   ar
    87   118   117    2
    88    74    75   ar
    89     6     9    1
    90     6     7    1
    91    73    75   ar
    92    66    67    1
    93   117   116    1
    94    67    68    1
    95     7     8    2
    96    85    86    1
    97    85    84    1
    98    86    87    2
    99   116   115    1
   100    69    68    2
   101    84    82   am
   102   115   114    1
   103    82    83    2
   104    82    81    1
   105   114   111    1
   106   109   107   ar
   107    80    81    1
   108    80    78   am
   109    76    77    1
   110    77    78    1
   111    78    79    2
   112   107   106    1
   113   107   108   ar
   114   111   112    1
   115   111   110    1
   116   104   103    2
   117   106   105    1
   118   112   113    2
   119   110   103   am
   120   103   102    1
   121   105   102    1
   122   102   101    1
