@<TRIPOS>MOLECULE
tmp/1x9nD00.pdb
 152 145 0 0 0
SMALL
GASTEIGER

@<TRIPOS>ATOM
      1  N         56.1880   44.8080   40.7810 N.3   270  LEU270     -0.1231
      2  CA        54.7800   45.1440   40.6770 C.3   270  LEU270      0.1693
      3  C         54.4940   46.5210   40.0580 C.2   270  LEU270      0.2591
      4  O         55.4080   47.1950   39.5800 O.2   270  LEU270     -0.2718
      5  CB        54.1700   45.0490   42.0610 C.3   270  LEU270      0.0284
      6  CG        54.2460   43.6430   42.6400 C.3   270  LEU270      0.0019
      7  CD1       53.5690   43.6220   43.9890 C.3   270  LEU270      0.0001
      8  CD2       53.6410   42.6290   41.6660 C.3   270  LEU270      0.0001
      9  N         53.2240   46.9360   40.0760 N.am  271  ALA271     -0.1980
     10  CA        52.8020   48.1640   39.3890 C.3   271  ALA271      0.1597
     11  C         51.8360   49.0440   40.1620 C.2   271  ALA271      0.2287
     12  O         50.9100   48.5660   40.8020 O.2   271  ALA271     -0.2864
     13  CB        52.2090   47.8400   38.0390 C.3   271  ALA271      0.0319
     14  N         55.2360   50.5610   27.3550 N.3   292  GLU292     -0.1231
     15  CA        55.1300   49.2220   26.8260 C.3   292  GLU292      0.1699
     16  C         53.7000   48.7760   26.8690 C.2   292  GLU292      0.2592
     17  O         52.8750   49.3210   27.5990 O.2   292  GLU292     -0.2718
     18  CB        55.9820   48.2640   27.6430 C.3   292  GLU292      0.0402
     19  CG        57.4180   48.1680   27.1790 C.3   292  GLU292      0.1161
     20  CD        58.3130   47.4800   28.1980 C.2   292  GLU292      0.3649
     21  OE1       57.7800   46.8450   29.1440 O.co2 292  GLU292     -0.2457
     22  OE2       59.5600   47.5740   28.0510 O.co2 292  GLU292     -0.2457
     23  N         53.4080   47.7690   26.0710 N.am  293  TYR293     -0.1962
     24  CA        52.0690   47.2280   26.0260 C.3   293  TYR293      0.1771
     25  C         51.8330   46.3490   27.2580 C.2   293  TYR293      0.2619
     26  O         52.6480   45.4740   27.5850 O.2   293  TYR293     -0.2715
     27  CB        51.8680   46.4740   24.7040 C.3   293  TYR293      0.0574
     28  CG        51.4340   47.3820   23.5570 C.ar  293  TYR293     -0.0198
     29  CD1       51.3530   48.7650   23.7330 C.ar  293  TYR293     -0.0009
     30  CD2       51.0910   46.8610   22.3040 C.ar  293  TYR293     -0.0009
     31  CE1       50.9520   49.5980   22.7040 C.ar  293  TYR293      0.0417
     32  CE2       50.6820   47.6880   21.2790 C.ar  293  TYR293      0.0417
     33  CZ        50.6140   49.0550   21.4870 C.ar  293  TYR293      0.1957
     34  OH        50.2100   49.8950   20.4800 O.3   293  TYR293     -0.2866
     35  N         50.7420   46.6200   27.9670 N.am  294  LYS294     -0.1963
     36  CA        50.3170   45.7680   29.0780 C.3   294  LYS294      0.1728
     37  C         49.4970   44.5720   28.5700 C.2   294  LYS294      0.2616
     38  O         48.2670   44.6190   28.5190 O.2   294  LYS294     -0.2715
     39  CB        49.5130   46.5720   30.0960 C.3   294  LYS294      0.0311
     40  CG        49.0860   45.7570   31.2960 C.3   294  LYS294      0.0038
     41  CD        48.3900   46.6190   32.3410 C.3   294  LYS294      0.0206
     42  CE        48.6190   46.0680   33.7430 C.3   294  LYS294      0.1093
     43  NZ        48.0890   44.6750   33.8320 N.3   294  LYS294     -0.1314
     44  N         50.1870   43.5130   28.1740 N.am  295  TYR295     -0.1974
     45  CA        49.5380   42.3240   27.6660 C.3   295  TYR295      0.1639
     46  C         48.6590   41.6370   28.6980 C.2   295  TYR295      0.2290
     47  O         49.0630   41.4560   29.8480 O.2   295  TYR295     -0.2864
     48  CB        50.5820   41.3530   27.1610 C.3   295  TYR295      0.0560
     49  CG        51.3720   41.9210   26.0360 C.ar  295  TYR295     -0.0198
     50  CD1       52.4200   42.7780   26.2730 C.ar  295  TYR295     -0.0009
     51  CD2       51.0560   41.6180   24.7300 C.ar  295  TYR295     -0.0009
     52  CE1       53.1490   43.3090   25.2430 C.ar  295  TYR295      0.0417
     53  CE2       51.7710   42.1500   23.6850 C.ar  295  TYR295      0.0417
     54  CZ        52.8160   42.9940   23.9490 C.ar  295  TYR295      0.1957
     55  OH        53.5320   43.5250   22.9100 O.3   295  TYR295     -0.2866
     56  N         51.6130   36.0880   33.9160 N.3   299  ARG299     -0.1245
     57  CA        53.0530   36.2770   34.1190 C.3   299  ARG299      0.1563
     58  C         53.8090   34.9360   34.2080 C.2   299  ARG299      0.2260
     59  O         53.3510   33.9890   34.8670 O.2   299  ARG299     -0.2867
     60  CB        53.3000   37.1350   35.3610 C.3   299  ARG299      0.0307
     61  CG        54.6730   37.8210   35.4010 C.3   299  ARG299      0.0489
     62  CD        54.7560   38.9800   36.3960 C.3   299  ARG299      0.2205
     63  NE        55.9730   39.7850   36.2930 N.pl3 299  ARG299     -0.0865
     64  CZ        56.1980   40.8710   37.0290 C.cat 299  ARG299      0.5346
     65  NH1       55.2670   41.2670   37.8860 N.pl3 299  ARG299      0.1354
     66  NH2       57.3320   41.5670   36.9100 N.pl3 299  ARG299      0.1354
     67  N         53.4750   34.6590   39.2480 N.3   315  ARG315     -0.1245
     68  CA        53.5790   35.8650   40.0670 C.3   315  ARG315      0.1563
     69  C         53.7520   35.5440   41.5540 C.2   315  ARG315      0.2260
     70  O         54.2660   36.3690   42.3180 O.2   315  ARG315     -0.2867
     71  CB        52.3270   36.7170   39.8900 C.3   315  ARG315      0.0307
     72  CG        52.3190   37.9230   40.7620 C.3   315  ARG315      0.0489
     73  CD        50.9850   38.3430   41.2630 C.3   315  ARG315      0.2205
     74  NE        50.5440   39.5520   40.5720 N.pl3 315  ARG315     -0.0865
     75  CZ        50.2890   40.7050   41.1740 C.cat 315  ARG315      0.5346
     76  NH1       50.4470   40.7990   42.4890 N.pl3 315  ARG315      0.1354
     77  NH2       49.8730   41.7600   40.4760 N.pl3 315  ARG315      0.1354
     78  N         55.2580   37.6420   29.9310 N.3   347  GLU347     -0.1245
     79  CA        53.8490   37.2760   29.8960 C.3   347  GLU347      0.1567
     80  C         53.5460   36.1900   28.8600 C.2   347  GLU347      0.2260
     81  O         53.8680   36.3260   27.6780 O.2   347  GLU347     -0.2867
     82  CB        52.9860   38.4810   29.5750 C.3   347  GLU347      0.0388
     83  CG        51.5200   38.2530   29.9070 C.3   347  GLU347      0.1160
     84  CD        51.1130   39.0740   31.1020 C.2   347  GLU347      0.3649
     85  OE1       51.7690   40.1070   31.2950 O.co2 347  GLU347     -0.2457
     86  OE2       50.1740   38.7050   31.8450 O.co2 347  GLU347     -0.2457
     87  N         59.9440   41.2100   28.5840 N.3   386  PHE386     -0.1241
     88  CA        60.0500   42.6230   28.8640 C.3   386  PHE386      0.1605
     89  C         61.1340   42.9020   29.8950 C.2   386  PHE386      0.2264
     90  O         61.4510   44.0600   30.1880 O.2   386  PHE386     -0.2867
     91  CB        58.6950   43.1850   29.2890 C.3   386  PHE386      0.0534
     92  CG        58.0480   42.4280   30.4090 C.ar  386  PHE386     -0.0203
     93  CD1       58.3370   42.7300   31.7310 C.ar  386  PHE386     -0.0042
     94  CD2       57.1520   41.4260   30.1510 C.ar  386  PHE386     -0.0042
     95  CE1       57.7400   42.0570   32.7590 C.ar  386  PHE386     -0.0003
     96  CE2       56.5600   40.7490   31.1880 C.ar  386  PHE386     -0.0003
     97  CZ        56.8550   41.0750   32.4960 C.ar  386  PHE386     -0.0000
     98  N         58.3570   42.8550   24.0710 N.3   422  ALA422     -0.1245
     99  CA        57.1660   43.6970   24.2600 C.3   422  ALA422      0.1562
    100  C         57.2920   44.9970   23.4890 C.2   422  ALA422      0.2260
    101  O         58.3870   45.5450   23.3810 O.2   422  ALA422     -0.2867
    102  CB        56.9350   43.9900   25.7330 C.3   422  ALA422      0.0290
    103  N         45.6880   45.5280   28.0020 N.3   446  GLU446     -0.1245
    104  CA        45.0840   46.2530   29.1010 C.3   446  GLU446      0.1567
    105  C         45.3760   47.7430   28.9050 C.2   446  GLU446      0.2260
    106  O         44.5670   48.6120   29.2560 O.2   446  GLU446     -0.2867
    107  CB        45.6530   45.7530   30.4290 C.3   446  GLU446      0.0388
    108  CG        45.4120   44.2750   30.6950 C.3   446  GLU446      0.1160
    109  CD        44.7750   44.0330   32.0530 C.2   446  GLU446      0.3649
    110  OE1       43.6610   44.5600   32.2730 O.co2 446  GLU446     -0.2457
    111  OE2       45.3820   43.3290   32.9060 O.co2 446  GLU446     -0.2457
    112  N         57.7080   52.4070   32.8330 N.3   450  LYS450     -0.1245
    113  CA        58.8700   52.1040   33.6480 C.3   450  LYS450      0.1561
    114  C         59.9340   53.1690   33.4240 C.2   450  LYS450      0.2260
    115  O         60.0250   53.7120   32.3370 O.2   450  LYS450     -0.2867
    116  CB        59.3900   50.7440   33.2330 C.3   450  LYS450      0.0271
    117  CG        58.3390   49.6860   33.4210 C.3   450  LYS450      0.0035
    118  CD        58.4200   48.5920   32.3940 C.3   450  LYS450      0.0206
    119  CE        57.4010   47.4950   32.6930 C.3   450  LYS450      0.1093
    120  NZ        57.9160   46.2060   32.1630 N.3   450  LYS450     -0.1314
    121  N         56.7400   50.1420   38.8030 N.3   467  TRP467     -0.1241
    122  CA        56.2340   50.4380   37.4880 C.3   467  TRP467      0.1605
    123  C         54.8300   50.9420   37.6230 C.2   467  TRP467      0.2264
    124  O         54.1520   50.6610   38.6070 O.2   467  TRP467     -0.2867
    125  CB        56.2100   49.1760   36.6740 C.3   467  TRP467      0.0550
    126  CG        57.5390   48.5900   36.5090 C.ar  467  TRP467      0.0003
    127  CD1       58.7190   49.2320   36.5890 C.ar  467  TRP467      0.0946
    128  CD2       57.8340   47.2300   36.2140 C.ar  467  TRP467      0.0152
    129  NE1       59.7440   48.3550   36.3490 N.ar  467  TRP467     -0.2442
    130  CE2       59.2210   47.1160   36.1190 C.ar  467  TRP467      0.0810
    131  CE3       57.0560   46.0850   36.0210 C.ar  467  TRP467      0.0012
    132  CZ2       59.8500   45.9190   35.8430 C.ar  467  TRP467      0.0191
    133  CZ3       57.6790   44.8940   35.7480 C.ar  467  TRP467      0.0001
    134  CH2       59.0610   44.8190   35.6530 C.ar  467  TRP467      0.0015
    135  N         50.9370   51.4290   35.6980 N.3   469  LYS469     -0.1245
    136  CA        50.0660   51.0420   34.5960 C.3   469  LYS469      0.1561
    137  C         49.0800   52.1550   34.2490 C.2   469  LYS469      0.2260
    138  O         48.4540   52.7400   35.1320 O.2   469  LYS469     -0.2867
    139  CB        49.3540   49.7140   34.8670 C.3   469  LYS469      0.0271
    140  CG        48.3670   49.7570   36.0040 C.3   469  LYS469      0.0035
    141  CD        48.8120   48.8640   37.1560 C.3   469  LYS469      0.0206
    142  CE        47.9940   49.1310   38.4090 C.3   469  LYS469      0.1093
    143  NZ        47.3930   47.8690   38.9190 N.3   469  LYS469     -0.1314
    144  N         45.6810   52.4270   32.6120 N.3   471  LYS471     -0.1245
    145  CA        44.6160   51.4840   32.2670 C.3   471  LYS471      0.1561
    146  C         43.4820   52.1760   31.5240 C.2   471  LYS471      0.2260
    147  O         42.8860   53.1230   32.0440 O.2   471  LYS471     -0.2867
    148  CB        44.0870   50.7500   33.5140 C.3   471  LYS471      0.0271
    149  CG        43.3020   51.6310   34.5040 C.3   471  LYS471      0.0035
    150  CD        43.7830   51.4220   35.9380 C.3   471  LYS471      0.0206
    151  CE        43.9150   49.9400   36.2780 C.3   471  LYS471      0.1093
    152  NZ        44.4070   49.7310   37.6680 N.3   471  LYS471     -0.1314
@<TRIPOS>BOND
     1    34    33    1
     2    32    33   ar
     3    32    30   ar
     4    33    31   ar
     5    30    28   ar
     6    31    29   ar
     7    55    54    1
     8   101   100    2
     9   100    99    1
    10    28    29   ar
    11    28    27    1
    12    53    54   ar
    13    53    51   ar
    14    54    52   ar
    15    98    99    1
    16    99   102    1
    17    27    24    1
    18    51    49   ar
    19    52    50   ar
    20    24    23    1
    21    24    25    1
    22    49    50   ar
    23    49    48    1
    24    23    16   am
    25    15    16    1
    26    15    14    1
    27    15    18    1
    28    16    17    2
    29    48    45    1
    30    19    18    1
    31    19    20    1
    32    25    26    2
    33    25    35   am
    34    45    44    1
    35    45    46    1
    36    81    80    2
    37    35    36    1
    38   103   104    1
    39    22    20   ar
    40    44    37   am
    41    20    21   ar
    42    38    37    2
    43    37    36    1
    44    87    88    1
    45    46    47    2
    46    80    79    1
    47    88    91    1
    48    88    89    1
    49   105   104    1
    50   105   106    2
    51    36    39    1
    52   104   107    1
    53    91    92    1
    54    82    79    1
    55    82    83    1
    56    89    90    2
    57    79    78    1
    58    83    84    1
    59    39    40    1
    60    94    92   ar
    61    94    96   ar
    62    92    93   ar
    63   107   108    1
    64   108   109    1
    65    84    85   ar
    66    84    86   ar
    67    96    97   ar
    68    40    41    1
    69   146   147    2
    70   146   145    1
    71    93    95   ar
    72   109   110   ar
    73   109   111   ar
    74   120   119    1
    75   145   144    1
    76   145   148    1
    77   115   114    2
    78    41    42    1
    79   118   119    1
    80   118   117    1
    81    97    95   ar
    82   112   113    1
    83   116   117    1
    84   116   113    1
    85   114   113    1
    86   148   149    1
    87    42    43    1
    88    56    57    1
    89    57    58    1
    90    57    60    1
    91    58    59    2
    92   137   136    1
    93   137   138    2
    94   149   150    1
    95   136   139    1
    96   136   135    1
    97   139   140    1
    98    60    61    1
    99    61    62    1
   100   134   133   ar
   101   134   132   ar
   102   133   131   ar
   103   132   130   ar
   104   150   151    1
   105   140   141    1
   106   131   128   ar
   107   130   128   ar
   108   130   129   ar
   109   128   126   ar
   110   151   152    1
   111    63    62    1
   112    63    64    2
   113   129   127   ar
   114   126   127   ar
   115   126   125    1
   116   125   122    1
   117    66    64    1
   118    64    65    1
   119   141   142    1
   120   122   123    1
   121   122   121    1
   122   123   124    2
   123    13    10    1
   124   142   143    1
   125    67    68    1
   126    10     9    1
   127    10    11    1
   128     4     3    2
   129    71    68    1
   130    71    72    1
   131     3     9   am
   132     3     2    1
   133    68    69    1
   134    11    12    2
   135    77    75    1
   136    74    75    2
   137    74    73    1
   138     2     1    1
   139     2     5    1
   140    72    73    1
   141    75    76    1
   142    69    70    2
   143     8     6    1
   144     5     6    1
   145     6     7    1
