@<TRIPOS>MOLECULE
tmp/1x9qA00.pdb
 158 155 0 0 0
SMALL
GASTEIGER

@<TRIPOS>ATOM
      1  N         13.3790   35.4480   46.2090 N.3    32  HIS32      -0.1241
      2  CA        11.9530   35.6900   46.3570 C.3    32  HIS32       0.1621
      3  C         11.1700   34.9730   45.2590 C.2    32  HIS32       0.2264
      4  O         11.6780   34.7570   44.1600 O.2    32  HIS32      -0.2867
      5  CB        11.7050   37.1920   46.2680 C.3    32  HIS32       0.0745
      6  CG        10.3390   37.6120   46.6960 C.ar   32  HIS32       0.0817
      7  ND1        9.2040   37.2890   45.9860 N.ar   32  HIS32      -0.2268
      8  CD2        9.9290   38.3610   47.7460 C.ar   32  HIS32       0.1154
      9  CE1        8.1500   37.7890   46.6050 C.ar   32  HIS32       0.1986
     10  NE2        8.5640   38.4550   47.6670 N.ar   32  HIS32      -0.2212
     11  N          9.0290   36.1310   43.4230 N.3    34  ASN34      -0.1240
     12  CA         8.8810   36.9880   42.2560 C.3    34  ASN34       0.1653
     13  C         10.1200   37.0280   41.3880 C.2    34  ASN34       0.2266
     14  O         10.1610   37.7820   40.4140 O.2    34  ASN34      -0.2867
     15  CB         8.4260   38.4000   42.6440 C.3    34  ASN34       0.1155
     16  CG         9.4980   39.2090   43.3700 C.2    34  ASN34       0.2627
     17  OD1       10.6830   38.8560   43.4170 O.2    34  ASN34      -0.2716
     18  ND2        9.0720   40.3340   43.9240 N.am   34  ASN34      -0.0877
     19  N         13.2380   37.9910   42.1730 N.3    36  ASN36      -0.1240
     20  CA        14.2980   38.8730   42.6480 C.3    36  ASN36       0.1653
     21  C         14.9960   38.3120   43.8820 C.2    36  ASN36       0.2266
     22  O         14.4080   37.5410   44.6230 O.2    36  ASN36      -0.2867
     23  CB        13.7110   40.2350   43.0230 C.3    36  ASN36       0.1155
     24  CG        13.1840   40.9880   41.8330 C.2    36  ASN36       0.2627
     25  OD1       13.7550   40.9170   40.7580 O.2    36  ASN36      -0.2716
     26  ND2       12.0700   41.6930   42.0110 N.am   36  ASN36      -0.0877
     27  N         16.6850   40.0150   47.0790 N.3    38  TYR38      -0.1241
     28  CA        16.7590   41.3390   47.6820 C.3    38  TYR38       0.1605
     29  C         17.9070   41.4310   48.6890 C.2    38  TYR38       0.2264
     30  O         17.7260   41.2620   49.8960 O.2    38  TYR38      -0.2867
     31  CB        15.4230   41.6790   48.3030 C.3    38  TYR38       0.0534
     32  CG        14.2740   41.8280   47.3240 C.ar   38  TYR38      -0.0201
     33  CD1       14.1310   42.9760   46.5760 C.ar   38  TYR38      -0.0009
     34  CD2       13.3070   40.8390   47.1890 C.ar   38  TYR38      -0.0009
     35  CE1       13.0840   43.1410   45.7000 C.ar   38  TYR38       0.0417
     36  CE2       12.2370   40.9990   46.3410 C.ar   38  TYR38       0.0417
     37  CZ        12.1370   42.1480   45.5810 C.ar   38  TYR38       0.1957
     38  OH        11.0780   42.3130   44.7050 O.3    38  TYR38      -0.2866
     39  N         21.1830   44.0330   49.5800 N.3    40  ARG40      -0.1245
     40  CA        21.7950   45.3360   49.3930 C.3    40  ARG40       0.1563
     41  C         23.1410   45.3660   50.0940 C.2    40  ARG40       0.2260
     42  O         23.3520   44.6900   51.1040 O.2    40  ARG40      -0.2867
     43  CB        20.9370   46.4410   50.0290 C.3    40  ARG40       0.0307
     44  CG        19.9680   47.1060   49.0760 C.3    40  ARG40       0.0489
     45  CD        19.2440   48.2940   49.6510 C.3    40  ARG40       0.2205
     46  NE        18.2230   47.9250   50.6210 N.pl3  40  ARG40      -0.0865
     47  CZ        16.9780   47.5720   50.3200 C.cat  40  ARG40       0.5346
     48  NH1       16.5690   47.5080   49.0510 N.pl3  40  ARG40       0.1354
     49  NH2       16.1200   47.3200   51.2940 N.pl3  40  ARG40       0.1354
     50  N         16.1350   42.0700   52.2710 N.3    97  SER97      -0.1202
     51  CA        14.7790   42.5860   52.3130 C.3    97  SER97       0.2020
     52  C         13.8150   41.6560   51.5790 C.2    97  SER97       0.2619
     53  O         12.7540   42.0790   51.1540 O.2    97  SER97      -0.2717
     54  CB        14.7090   44.0080   51.7610 C.3    97  SER97       0.2103
     55  OG        15.3390   44.0970   50.5080 O.3    97  SER97      -0.2182
     56  N         14.1600   40.3730   51.4930 N.am   98  THR98      -0.1952
     57  CA        13.2510   39.3770   50.9380 C.3    98  THR98       0.1897
     58  C         12.1810   38.9650   51.9470 C.2    98  THR98       0.2313
     59  O         11.0320   38.6870   51.5870 O.2    98  THR98      -0.2863
     60  CB        14.0550   38.1450   50.5380 C.3    98  THR98       0.1794
     61  OG1       14.8880   38.4820   49.4290 O.3    98  THR98      -0.2208
     62  CG2       13.1620   37.0030   50.0330 C.3    98  THR98       0.0378
     63  N         13.1230   42.8320   57.8470 N.3   102  TRP102     -0.1241
     64  CA        14.3370   43.1210   57.0940 C.3   102  TRP102      0.1605
     65  C         15.4950   43.0980   58.0890 C.2   102  TRP102      0.2264
     66  O         15.3460   43.5600   59.2150 O.2   102  TRP102     -0.2867
     67  CB        14.2310   44.4810   56.4160 C.3   102  TRP102      0.0550
     68  CG        13.2480   44.5040   55.2650 C.ar  102  TRP102      0.0003
     69  CD1       12.3950   43.5130   54.8780 C.ar  102  TRP102      0.0946
     70  CD2       13.0480   45.5770   54.3540 C.ar  102  TRP102      0.0152
     71  NE1       11.6660   43.9050   53.7740 N.ar  102  TRP102     -0.2442
     72  CE2       12.0480   45.1720   53.4340 C.ar  102  TRP102      0.0810
     73  CE3       13.6150   46.8400   54.2090 C.ar  102  TRP102      0.0012
     74  CZ2       11.6350   45.9820   52.3750 C.ar  102  TRP102      0.0191
     75  CZ3       13.1910   47.6410   53.1720 C.ar  102  TRP102      0.0001
     76  CH2       12.2110   47.2080   52.2740 C.ar  102  TRP102      0.0015
     77  N          4.7700   54.3940   44.6070 N.3   145  HIS145     -0.1241
     78  CA         5.3550   53.1330   44.1800 C.3   145  HIS145      0.1621
     79  C          6.3960   52.6230   45.1720 C.2   145  HIS145      0.2264
     80  O          7.1220   51.6970   44.8520 O.2   145  HIS145     -0.2867
     81  CB         6.0100   53.2950   42.8040 C.3   145  HIS145      0.0745
     82  CG         5.0280   53.5190   41.7020 C.ar  145  HIS145      0.0817
     83  ND1        4.1790   52.5320   41.2500 N.ar  145  HIS145     -0.2268
     84  CD2        4.7560   54.6190   40.9640 C.ar  145  HIS145      0.1154
     85  CE1        3.4270   53.0160   40.2770 C.ar  145  HIS145      0.1986
     86  NE2        3.7530   54.2840   40.0870 N.ar  145  HIS145     -0.2212
     87  N          7.6350   51.4720   49.3100 N.3   147  TRP147     -0.1241
     88  CA         7.3620   51.0440   50.6810 C.3   147  TRP147      0.1605
     89  C          8.2330   51.9250   51.5720 C.2   147  TRP147      0.2264
     90  O          9.4240   52.0720   51.3130 O.2   147  TRP147     -0.2867
     91  CB         7.7580   49.5930   50.8980 C.3   147  TRP147      0.0550
     92  CG         6.9350   48.5930   50.1580 C.ar  147  TRP147      0.0003
     93  CD1        5.8800   48.8250   49.3040 C.ar  147  TRP147      0.0946
     94  CD2        7.1000   47.1840   50.2140 C.ar  147  TRP147      0.0152
     95  NE1        5.3890   47.6310   48.8370 N.ar  147  TRP147     -0.2442
     96  CE2        6.1290   46.6070   49.3720 C.ar  147  TRP147      0.0810
     97  CE3        7.9950   46.3400   50.8870 C.ar  147  TRP147      0.0012
     98  CZ2        6.0170   45.2270   49.1980 C.ar  147  TRP147      0.0191
     99  CZ3        7.8830   44.9810   50.7090 C.ar  147  TRP147      0.0001
    100  CH2        6.9070   44.4370   49.8690 C.ar  147  TRP147      0.0015
    101  N          3.5650   49.7320   53.6720 N.3   166  ARG166     -0.1231
    102  CA         3.5450   49.4620   52.2420 C.3   166  ARG166      0.1694
    103  C          2.6120   50.4110   51.5120 C.2   166  ARG166      0.2592
    104  O          1.9350   51.2210   52.1310 O.2   166  ARG166     -0.2718
    105  CB         3.1800   47.9930   51.9770 C.3   166  ARG166      0.0321
    106  CG         4.1760   47.0450   52.6240 C.3   166  ARG166      0.0489
    107  CD         4.0270   45.5860   52.2750 C.3   166  ARG166      0.2205
    108  NE         5.1570   44.8470   52.8280 N.pl3 166  ARG166     -0.0865
    109  CZ         5.3730   43.5510   52.6770 C.cat 166  ARG166      0.5346
    110  NH1        4.5240   42.7910   51.9970 N.pl3 166  ARG166      0.1354
    111  NH2        6.4530   43.0040   53.2320 N.pl3 166  ARG166      0.1354
    112  N          2.6300   50.3190   50.1870 N.am  167  ASN167     -0.1974
    113  CA         1.8270   51.1810   49.3190 C.3   167  ASN167      0.1688
    114  C          0.4730   50.5560   48.9530 C.2   167  ASN167      0.2292
    115  O          0.1690   49.4340   49.3560 O.2   167  ASN167     -0.2864
    116  CB         2.6260   51.6000   48.0700 C.3   167  ASN167      0.1181
    117  CG         3.0940   50.4240   47.2300 C.2   167  ASN167      0.2629
    118  OD1        3.1110   49.2860   47.6840 O.2   167  ASN167     -0.2716
    119  ND2        3.4590   50.7020   45.9790 N.am  167  ASN167     -0.0877
    120  N          0.0000   47.0020   47.6250 N.3   170  TYR170     -0.1241
    121  CA         0.2980   45.9760   48.6160 C.3   170  TYR170      0.1605
    122  C         -0.5480   46.1650   49.8720 C.2   170  TYR170      0.2264
    123  O         -0.1270   45.8530   50.9870 O.2   170  TYR170     -0.2867
    124  CB         1.8120   45.9170   48.9010 C.3   170  TYR170      0.0534
    125  CG         2.5470   45.2220   47.7830 C.ar  170  TYR170     -0.0201
    126  CD1        3.0980   45.9420   46.7330 C.ar  170  TYR170     -0.0009
    127  CD2        2.6520   43.8410   47.7520 C.ar  170  TYR170     -0.0009
    128  CE1        3.7430   45.3100   45.6970 C.ar  170  TYR170      0.0417
    129  CE2        3.2930   43.1970   46.7120 C.ar  170  TYR170      0.0417
    130  CZ         3.8430   43.9360   45.6890 C.ar  170  TYR170      0.1957
    131  OH         4.4880   43.3090   44.6420 O.3   170  TYR170     -0.2866
    132  N         11.7510   52.3700   49.6860 N.3   215  ALA215     -0.1231
    133  CA        12.2040   51.2220   48.9000 C.3   215  ALA215      0.1694
    134  C         11.2530   50.9140   47.7600 C.2   215  ALA215      0.2593
    135  O         10.0390   50.9310   47.9390 O.2   215  ALA215     -0.2718
    136  CB        12.3320   50.0050   49.8250 C.3   215  ALA215      0.0304
    137  N         11.8090   50.5980   46.5950 N.am  216  SER216     -0.1938
    138  CA        10.9980   50.3160   45.4000 C.3   216  SER216      0.2055
    139  C         11.8110   49.4690   44.4330 C.2   216  SER216      0.2643
    140  O         12.9490   49.8070   44.1180 O.2   216  SER216     -0.2714
    141  CB        10.5600   51.6300   44.7160 C.3   216  SER216      0.2130
    142  OG         9.6180   51.4140   43.6630 O.3   216  SER216     -0.2179
    143  N         11.2380   48.3470   44.0050 N.am  217  TYR217     -0.1959
    144  CA        11.8720   47.4420   43.0350 C.3   217  TYR217      0.1771
    145  C         13.3050   47.0790   43.4530 C.2   217  TYR217      0.2620
    146  O         14.2230   47.0430   42.6380 O.2   217  TYR217     -0.2715
    147  CB        11.7790   48.0230   41.6210 C.3   217  TYR217      0.0574
    148  CG        10.3570   48.0270   41.1280 C.ar  217  TYR217     -0.0198
    149  CD1        9.8030   46.9030   40.5300 C.ar  217  TYR217     -0.0009
    150  CD2        9.5520   49.1360   41.3050 C.ar  217  TYR217     -0.0009
    151  CE1        8.4990   46.9030   40.1000 C.ar  217  TYR217      0.0417
    152  CE2        8.2480   49.1420   40.8640 C.ar  217  TYR217      0.0417
    153  CZ         7.7270   48.0280   40.2790 C.ar  217  TYR217      0.1957
    154  OH         6.4160   48.0440   39.8390 O.3   217  TYR217     -0.2866
    155  N         13.4800   46.8430   44.7470 N.am  218  GLY218     -0.1954
    156  CA        14.7610   46.4220   45.2960 C.3   218  GLY218      0.1869
    157  C         15.7550   47.5320   45.6180 C.2   218  GLY218      0.2309
    158  O         16.7730   47.2840   46.2510 O.2   218  GLY218     -0.2863
@<TRIPOS>BOND
     1   154   153    1
     2    86    85   ar
     3    86    84   ar
     4   151   153   ar
     5   151   149   ar
     6    85    83   ar
     7   153   152   ar
     8    14    13    2
     9   149   148   ar
    10    25    24    2
    11   152   150   ar
    12    84    82   ar
    13   148   150   ar
    14   148   147    1
    15    83    82   ar
    16    13    12    1
    17   147   144    1
    18    82    81    1
    19    24    26   am
    20    24    23    1
    21    19    20    1
    22    12    15    1
    23    12    11    1
    24   146   145    2
    25    15    16    1
    26    20    23    1
    27    20    21    1
    28    81    78    1
    29   144   145    1
    30   144   143    1
    31    16    17    2
    32    16    18   am
    33   145   155   am
    34   142   141    1
    35    21    22    2
    36   143   139   am
    37   140   139    2
    38     4     3    2
    39    78    77    1
    40    78    79    1
    41   139   138    1
    42   131   130    1
    43    38    37    1
    44   141   138    1
    45   155   156    1
    46    80    79    2
    47     3     2    1
    48   156   157    1
    49   138   137    1
    50    37    35   ar
    51    37    36   ar
    52   157   158    2
    53   130   128   ar
    54   130   129   ar
    55   128   126   ar
    56    35    33   ar
    57   119   117   am
    58     7     9   ar
    59     7     6   ar
    60     1     2    1
    61     5     2    1
    62     5     6    1
    63    36    34   ar
    64    33    32   ar
    65   137   134   am
    66     9    10   ar
    67     6     8   ar
    68   129   127   ar
    69   126   125   ar
    70    27    28    1
    71    34    32   ar
    72   117   118    2
    73   117   116    1
    74    32    31    1
    75   120   121    1
    76    10     8   ar
    77    28    31    1
    78    28    29    1
    79   127   125   ar
    80   134   135    2
    81   134   133    1
    82   125   124    1
    83   116   113    1
    84   121   124    1
    85   121   122    1
    86    29    30    2
    87    95    93   ar
    88    95    96   ar
    89   133   132    1
    90   133   136    1
    91   114   113    1
    92   114   115    2
    93    48    47    1
    94    44    45    1
    95    44    43    1
    96    98    96   ar
    97    98   100   ar
    98    93    92   ar
    99    87    88    1
   100   113   112    1
   101    96    94   ar
   102    40    39    1
   103    40    43    1
   104    40    41    1
   105    61    60    1
   106    45    46    1
   107   100    99   ar
   108   122   123    2
   109    62    60    1
   110    41    42    2
   111    92    94   ar
   112    92    91    1
   113   112   103   am
   114    94    97   ar
   115    47    46    2
   116    47    49    1
   117    55    54    1
   118    60    57    1
   119    88    91    1
   120    88    89    1
   121    99    97   ar
   122    57    56    1
   123    57    58    1
   124    53    52    2
   125    90    89    2
   126    56    52   am
   127   103   104    2
   128   103   102    1
   129    52    51    1
   130    59    58    2
   131    54    51    1
   132   105   102    1
   133   105   106    1
   134   110   109    1
   135   102   101    1
   136    50    51    1
   137    76    74   ar
   138    76    75   ar
   139   107   106    1
   140   107   108    1
   141    74    72   ar
   142   109   108    2
   143   109   111    1
   144    75    73   ar
   145    72    71   ar
   146    72    70   ar
   147    71    69   ar
   148    73    70   ar
   149    70    68   ar
   150    69    68   ar
   151    68    67    1
   152    67    64    1
   153    64    63    1
   154    64    65    1
   155    65    66    2
