@<TRIPOS>MOLECULE
tmp/1xa1B00.pdb
 107 100 0 0 0
SMALL
GASTEIGER

@<TRIPOS>ATOM
      1  N         23.3400   80.0520   34.0690 N.3    51  ASN51      -0.1225
      2  CA        23.6500   81.4680   33.9600 C.3    51  ASN51       0.1785
      3  C         22.4900   82.2740   34.5120 C.2    51  ASN51       0.2597
      4  O         21.9180   81.9150   35.5530 O.2    51  ASN51      -0.2718
      5  CB        23.9880   81.8160   32.5050 C.3    51  ASN51       0.1169
      6  CG        25.2930   81.2630   32.1040 C.2    51  ASN51       0.2627
      7  OD1       25.3830   80.4570   31.1680 O.2    51  ASN51      -0.2716
      8  ND2       26.3430   81.6590   32.8250 N.am   51  ASN51      -0.0877
      9  N         22.1190   83.3390   33.8230 N.am   52  SER52      -0.1952
     10  CA        21.1340   84.2720   34.3510 C.3    52  SER52       0.1924
     11  C         19.7160   83.7190   34.4970 C.2    52  SER52       0.2314
     12  O         18.8870   84.3310   35.1630 O.2    52  SER52      -0.2863
     13  CB        21.1520   85.5770   33.5530 C.3    52  SER52       0.2116
     14  OG        22.3280   86.2850   33.8630 O.3    52  SER52      -0.2180
     15  N         18.4900   83.5400   38.0690 N.3    55  LYS55      -0.1245
     16  CA        17.9320   84.7250   38.6960 C.3    55  LYS55       0.1561
     17  C         16.4430   84.5580   39.0190 C.2    55  LYS55       0.2260
     18  O         15.9350   85.1620   39.9400 O.2    55  LYS55      -0.2867
     19  CB        18.2190   85.9520   37.8400 C.3    55  LYS55       0.0271
     20  CG        19.7100   86.3290   37.8680 C.3    55  LYS55       0.0035
     21  CD        20.0930   87.3330   36.8050 C.3    55  LYS55       0.0206
     22  CE        21.5900   87.5520   36.8590 C.3    55  LYS55       0.1093
     23  NZ        22.0960   88.2910   35.7290 N.3    55  LYS55      -0.1314
     24  N         22.7260   99.7420   34.7370 N.3    87  TRP87      -0.1241
     25  CA        23.2200   99.1100   35.9590 C.3    87  TRP87       0.1605
     26  C         23.6650  100.1300   37.0190 C.2    87  TRP87       0.2264
     27  O         23.8280   99.7620   38.1900 O.2    87  TRP87      -0.2867
     28  CB        24.3900   98.1730   35.6450 C.3    87  TRP87       0.0550
     29  CG        24.0040   96.9300   34.9030 C.ar   87  TRP87       0.0003
     30  CD1       22.9030   96.7410   34.1200 C.ar   87  TRP87       0.0946
     31  CD2       24.7330   95.7090   34.8650 C.ar   87  TRP87       0.0152
     32  NE1       22.9030   95.4680   33.6000 N.ar   87  TRP87      -0.2442
     33  CE2       24.0090   94.8070   34.0490 C.ar   87  TRP87       0.0810
     34  CE3       25.9310   95.2780   35.4330 C.ar   87  TRP87       0.0012
     35  CZ2       24.4470   93.5050   33.7830 C.ar   87  TRP87       0.0191
     36  CZ3       26.3660   93.9720   35.1760 C.ar   87  TRP87       0.0001
     37  CH2       25.6150   93.1020   34.3600 C.ar   87  TRP87       0.0015
     38  N         18.9580   92.1960   33.7870 N.3   100  SER100     -0.1217
     39  CA        19.8510   91.1240   34.2250 C.3   100  SER100      0.1889
     40  C         21.0420   91.6840   35.0020 C.2   100  SER100      0.2288
     41  O         22.2020   91.3430   34.7190 O.2   100  SER100     -0.2866
     42  CB        20.3310   90.2710   33.0530 C.3   100  SER100      0.2089
     43  OG        20.6020   88.9490   33.5150 O.3   100  SER100     -0.2183
     44  N         23.5490   91.8600   37.5520 N.3   102  ASN102     -0.1240
     45  CA        24.1940   90.8910   38.4510 C.3   102  ASN102      0.1653
     46  C         24.2930   91.3140   39.9140 C.2   102  ASN102      0.2266
     47  O         24.0090   90.5170   40.8090 O.2   102  ASN102     -0.2867
     48  CB        25.5660   90.5020   37.9000 C.3   102  ASN102      0.1155
     49  CG        25.4590   89.7250   36.5990 C.2   102  ASN102      0.2627
     50  OD1       24.4770   89.0080   36.3750 O.2   102  ASN102     -0.2716
     51  ND2       26.4580   89.8350   35.7520 N.am  102  ASN102     -0.0877
     52  N         26.7410   80.9010   37.5450 N.3   139  MET139     -0.1245
     53  CA        27.2880   81.6010   36.3770 C.3   139  MET139      0.1570
     54  C         28.5490   80.9030   35.8640 C.2   139  MET139      0.2261
     55  O         29.6490   81.1400   36.3790 O.2   139  MET139     -0.2867
     56  CB        27.6240   83.0490   36.7330 C.3   139  MET139      0.0387
     57  CG        26.4290   83.8960   37.1780 C.3   139  MET139      0.0595
     58  SD        25.1550   84.1890   35.8640 S.3   139  MET139     -0.1393
     59  CE        25.8450   85.5300   35.0170 C.3   139  MET139      0.0692
     60  N         13.0680   84.5200   30.9350 N.3   189  LYS189     -0.1231
     61  CA        14.3640   85.0400   31.3310 C.3   189  LYS189      0.1693
     62  C         15.4610   84.4470   30.4670 C.2   189  LYS189      0.2593
     63  O         15.5490   83.2270   30.3160 O.2   189  LYS189     -0.2718
     64  CB        14.6470   84.7030   32.7960 C.3   189  LYS189      0.0285
     65  CG        15.9630   85.2740   33.3250 C.3   189  LYS189      0.0035
     66  CD        15.9930   86.8120   33.3180 C.3   189  LYS189      0.0206
     67  CE        17.3800   87.3200   33.6180 C.3   189  LYS189      0.1093
     68  NZ        18.1800   87.4880   32.3500 N.3   189  LYS189     -0.1314
     69  N         16.3160   85.3020   29.9330 N.am  190  THR190     -0.1939
     70  CA        17.4970   84.8460   29.1980 C.3   190  THR190      0.2028
     71  C         18.6820   84.4640   30.0980 C.2   190  THR190      0.2643
     72  O         18.7980   84.8970   31.2440 O.2   190  THR190     -0.2714
     73  CB        18.0020   85.9280   28.2440 C.3   190  THR190      0.1808
     74  OG1       18.2570   87.1340   28.9720 O.3   190  THR190     -0.2208
     75  CG2       16.9700   86.3180   27.2130 C.3   190  THR190      0.0379
     76  N         19.6020   83.7050   29.5090 N.am  191  GLY191     -0.1939
     77  CA        20.8800   83.3780   30.1130 C.3   191  GLY191      0.2014
     78  C         21.9330   83.2940   29.0080 C.2   191  GLY191      0.2639
     79  O         21.6600   82.7650   27.9340 O.2   191  GLY191     -0.2714
     80  N         23.1160   83.8410   29.2710 N.am  192  THR192     -0.1950
     81  CA        24.2300   83.8460   28.3090 C.3   192  THR192      0.1897
     82  C         25.5380   83.5430   29.0190 C.2   192  THR192      0.2313
     83  O         25.9050   84.2490   29.9550 O.2   192  THR192     -0.2863
     84  CB        24.3580   85.2210   27.6460 C.3   192  THR192      0.1794
     85  OG1       23.1430   85.5580   26.9730 O.3   192  THR192     -0.2208
     86  CG2       25.4150   85.2330   26.5530 C.3   192  THR192      0.0378
     87  N         29.6290   83.3630   28.5060 N.3   194  ILE194     -0.1245
     88  CA        30.7130   83.8140   27.6470 C.3   194  ILE194      0.1561
     89  C         31.9970   83.2240   28.1920 C.2   194  ILE194      0.2260
     90  O         32.2480   83.3080   29.3900 O.2   194  ILE194     -0.2867
     91  CB        30.7800   85.3420   27.6330 C.3   194  ILE194      0.0252
     92  CG1       29.5270   85.8910   26.9330 C.3   194  ILE194      0.0019
     93  CG2       32.0950   85.8230   26.9690 C.3   194  ILE194      0.0019
     94  CD1       29.5300   87.3840   26.6610 C.3   194  ILE194      0.0001
     95  N         21.6700   84.1920   24.8670 N.3   228  GLY228     -0.1210
     96  CA        20.3100   84.2170   25.3750 C.3   228  GLY228      0.1956
     97  C         19.3390   84.9030   24.4270 C.2   228  GLY228      0.2611
     98  O         18.1900   84.4750   24.2680 O.2   228  GLY228     -0.2717
     99  N         19.8040   85.9690   23.7870 N.am  229  LYS229     -0.1979
    100  CA        18.9830   86.7130   22.8350 C.3   229  LYS229      0.1596
    101  C         18.5390   85.7940   21.7180 C.2   229  LYS229      0.2287
    102  O         17.3710   85.7820   21.3180 O.2   229  LYS229     -0.2864
    103  CB        19.7770   87.8910   22.2660 C.3   229  LYS229      0.0298
    104  CG        18.9740   88.8280   21.4120 C.3   229  LYS229      0.0038
    105  CD        19.7970   90.0630   21.0140 C.3   229  LYS229      0.0206
    106  CE        19.2370   90.7090   19.7330 C.3   229  LYS229      0.1093
    107  NZ        19.3600   89.7620   18.5820 N.3   229  LYS229     -0.1314
@<TRIPOS>BOND
     1   107   106    1
     2   106   105    1
     3   105   104    1
     4   102   101    2
     5   104   103    1
     6   101   100    1
     7   103   100    1
     8   100    99    1
     9    99    97   am
    10    98    97    2
    11    97    96    1
    12    95    96    1
    13    86    84    1
    14    94    92    1
    15    92    91    1
    16    93    91    1
    17    85    84    1
    18    75    73    1
    19    91    88    1
    20    84    81    1
    21    88    89    1
    22    88    87    1
    23    79    78    2
    24    89    90    2
    25    73    74    1
    26    73    70    1
    27    81    82    1
    28    81    80    1
    29    78    80   am
    30    78    77    1
    31    82    83    2
    32    70    69    1
    33    70    71    1
    34    76    71   am
    35    76    77    1
    36    69    62   am
    37    71    72    2
    38    63    62    2
    39    62    61    1
    40    60    61    1
    41     7     6    2
    42    61    64    1
    43     6     5    1
    44     6     8   am
    45    68    67    1
    46     5     2    1
    47    64    65    1
    48    42    43    1
    49    42    39    1
    50    66    65    1
    51    66    67    1
    52    13    14    1
    53    13    10    1
    54    32    33   ar
    55    32    30   ar
    56    35    33   ar
    57    35    37   ar
    58    38    39    1
    59     9    10    1
    60     9     3   am
    61     2     1    1
    62     2     3    1
    63    33    31   ar
    64    30    29   ar
    65    39    40    1
    66    10    11    1
    67    37    36   ar
    68    11    12    2
    69     3     4    2
    70    41    40    2
    71    24    25    1
    72    31    29   ar
    73    31    34   ar
    74    29    28    1
    75    59    58    1
    76    36    34   ar
    77    28    25    1
    78    23    22    1
    79    51    49   am
    80    58    57    1
    81    54    53    1
    82    54    55    2
    83    25    26    1
    84    50    49    2
    85    53    56    1
    86    53    52    1
    87    49    48    1
    88    56    57    1
    89    21    22    1
    90    21    20    1
    91    26    27    2
    92    44    45    1
    93    19    20    1
    94    19    16    1
    95    48    45    1
    96    15    16    1
    97    45    46    1
    98    16    17    1
    99    17    18    2
   100    46    47    2
