@<TRIPOS>MOLECULE
tmp/1xa4B00.pdb
 207 200 0 0 0
SMALL
GASTEIGER

@<TRIPOS>ATOM
      1  N          7.2290    4.1210   -5.3420 N.3    16  SER16      -0.1217
      2  CA         7.8080    3.0420   -6.0670 C.3    16  SER16       0.1889
      3  C          8.0780    1.9550   -5.0660 C.2    16  SER16       0.2288
      4  O          8.8980    2.1010   -4.1970 O.2    16  SER16      -0.2866
      5  CB         9.1180    3.4790   -6.7240 C.3    16  SER16       0.2089
      6  OG         9.7490    2.3940   -7.3640 O.3    16  SER16      -0.2183
      7  N          6.6820   -2.5020   -4.1150 N.3    18  ILE18      -0.1231
      8  CA         5.7140   -3.5700   -4.3160 C.3    18  ILE18       0.1692
      9  C          5.2690   -4.1550   -3.0040 C.2    18  ILE18       0.2592
     10  O          5.8410   -3.8640   -1.9480 O.2    18  ILE18      -0.2718
     11  CB         6.3090   -4.6960   -5.2340 C.3    18  ILE18       0.0266
     12  CG1        7.5720   -5.3150   -4.6020 C.3    18  ILE18       0.0019
     13  CG2        6.5780   -4.1150   -6.6120 C.3    18  ILE18       0.0020
     14  CD1        7.9810   -6.6900   -5.2330 C.3    18  ILE18       0.0001
     15  N          4.2510   -4.9890   -3.0900 N.am   19  GLU19      -0.1966
     16  CA         3.7640   -5.7790   -1.9540 C.3    19  GLU19       0.1733
     17  C          3.2190   -4.8840   -0.8550 C.2    19  GLU19       0.2616
     18  O          2.3710   -4.0790   -1.1800 O.2    19  GLU19      -0.2715
     19  CB         4.7830   -6.8040   -1.4650 C.3    19  GLU19       0.0429
     20  CG         4.8300   -8.0050   -2.3970 C.3    19  GLU19       0.1163
     21  CD         3.4970   -8.7800   -2.4990 C.2    19  GLU19       0.3649
     22  OE1        2.7460   -8.9480   -1.5090 O.co2  19  GLU19      -0.2457
     23  OE2        3.2140   -9.2730   -3.6050 O.co2  19  GLU19      -0.2457
     24  N          3.6240   -5.0300    0.4110 N.am   20  ILE20      -0.1963
     25  CA         2.9100   -4.3150    1.4800 C.3    20  ILE20       0.1727
     26  C          3.5880   -3.0170    1.8790 C.2    20  ILE20       0.2616
     27  O          2.9440   -1.9960    1.8120 O.2    20  ILE20      -0.2715
     28  CB         2.6730   -5.2020    2.7210 C.3    20  ILE20       0.0290
     29  CG1        1.8680   -6.4620    2.3350 C.3    20  ILE20       0.0022
     30  CG2        1.9180   -4.4150    3.7900 C.3    20  ILE20       0.0023
     31  CD1        1.7670   -7.4720    3.4100 C.3    20  ILE20       0.0001
     32  N          4.8580   -3.0390    2.3000 N.am   21  ALA21      -0.1963
     33  CA         5.3770   -1.9450    3.1470 C.3    21  ALA21       0.1728
     34  C          5.3870   -0.5450    2.4950 C.2    21  ALA21       0.2616
     35  O          4.7790    0.4090    3.0210 O.2    21  ALA21      -0.2715
     36  CB         6.7840   -2.3010    3.6580 C.3    21  ALA21       0.0334
     37  N          6.0740   -0.4330    1.3610 N.am   22  GLY22      -0.1955
     38  CA         6.1360    0.8170    0.5900 C.3    22  GLY22       0.1869
     39  C          4.7690    1.3160    0.1170 C.2    22  GLY22       0.2309
     40  O          4.4190    2.4650    0.3680 O.2    22  GLY22      -0.2863
     41  N          3.7630    3.6800   -8.9860 N.3    38  ILE38      -0.1245
     42  CA         4.6150    3.3130  -10.1140 C.3    38  ILE38       0.1561
     43  C          4.8310    1.8060  -10.1950 C.2    38  ILE38       0.2260
     44  O          5.1730    1.1590   -9.1970 O.2    38  ILE38      -0.2867
     45  CB         5.9880    4.0300  -10.0440 C.3    38  ILE38       0.0252
     46  CG1        5.7800    5.5430  -10.0660 C.3    38  ILE38       0.0019
     47  CG2        6.8490    3.5740  -11.2380 C.3    38  ILE38       0.0019
     48  CD1        7.0670    6.3100   -9.9380 C.3    38  ILE38       0.0001
     49  N          6.6780   -1.2440  -12.8670 N.3    40  ASN40      -0.1240
     50  CA         7.5610   -1.6040  -13.9660 C.3    40  ASN40       0.1653
     51  C          6.7080   -1.9510  -15.2200 C.2    40  ASN40       0.2266
     52  O          5.4890   -2.1630  -15.1200 O.2    40  ASN40      -0.2867
     53  CB         8.4740   -2.7350  -13.4420 C.3    40  ASN40       0.1155
     54  CG         9.5110   -3.2140  -14.4370 C.2    40  ASN40       0.2627
     55  OD1        9.1550   -3.8500  -15.4270 O.2    40  ASN40      -0.2716
     56  ND2       10.7990   -3.0430  -14.1170 N.am   40  ASN40      -0.0877
     57  N          6.0760    2.7570  -16.0750 N.3    66  LEU66      -0.1231
     58  CA         7.1710    3.5230  -16.6230 C.3    66  LEU66       0.1693
     59  C          8.4980    2.8720  -16.1850 C.2    66  LEU66       0.2592
     60  O          8.6730    2.5390  -15.0000 O.2    66  LEU66      -0.2718
     61  CB         7.0770    4.9330  -16.0530 C.3    66  LEU66       0.0284
     62  CG         7.9890    6.0270  -16.5510 C.3    66  LEU66       0.0019
     63  CD1        7.7560    6.2500  -18.0540 C.3    66  LEU66       0.0001
     64  CD2        7.7590    7.3030  -15.7950 C.3    66  LEU66       0.0001
     65  N          9.4400    2.6990  -17.1140 N.am   67  ASN67      -0.1960
     66  CA        10.8190    2.3790  -16.7370 C.3    67  ASN67       0.1819
     67  C         11.5270    3.6490  -16.2890 C.2    67  ASN67       0.2621
     68  O         11.9600    4.4580  -17.1050 O.2    67  ASN67      -0.2715
     69  CB        11.5650    1.6910  -17.8970 C.3    67  ASN67       0.1195
     70  CG        12.9870    1.2520  -17.5140 C.2    67  ASN67       0.2630
     71  OD1       13.5900    1.7560  -16.5610 O.2    67  ASN67      -0.2716
     72  ND2       13.5090    0.2740  -18.2450 N.am   67  ASN67      -0.0877
     73  N         11.6710    3.8350  -14.9770 N.am   68  ILE68      -0.1963
     74  CA        12.1350    5.1160  -14.4420 C.3    68  ILE68       0.1727
     75  C         13.6640    5.2840  -14.4570 C.2    68  ILE68       0.2616
     76  O         14.1810    6.3250  -14.0680 O.2    68  ILE68      -0.2715
     77  CB        11.5920    5.3640  -12.9950 C.3    68  ILE68       0.0290
     78  CG1       12.2230    4.4100  -11.9840 C.3    68  ILE68       0.0022
     79  CG2       10.0710    5.2490  -12.9940 C.3    68  ILE68       0.0023
     80  CD1       11.7950    4.7110  -10.5380 C.3    68  ILE68       0.0001
     81  N         14.3610    4.2540  -14.9000 N.am   69  PHE69      -0.1974
     82  CA        15.8170    4.2690  -14.9270 C.3    69  PHE69       0.1639
     83  C         16.4460    4.3930  -16.3280 C.2    69  PHE69       0.2290
     84  O         17.6710    4.5380  -16.4090 O.2    69  PHE69      -0.2864
     85  CB        16.3530    3.0230  -14.2270 C.3    69  PHE69       0.0560
     86  CG        15.9860    2.9600  -12.7660 C.ar   69  PHE69      -0.0200
     87  CD1       16.4620    3.9280  -11.8820 C.ar   69  PHE69      -0.0042
     88  CD2       15.1750    1.9420  -12.2780 C.ar   69  PHE69      -0.0042
     89  CE1       16.1340    3.8730  -10.5270 C.ar   69  PHE69      -0.0003
     90  CE2       14.8370    1.8920  -10.9180 C.ar   69  PHE69      -0.0003
     91  CZ        15.3160    2.8510  -10.0580 C.ar   69  PHE69      -0.0000
     92  N         10.6810    1.9470   -1.7970 N.3    89  ALA89      -0.1231
     93  CA        11.1440    0.8020   -1.0450 C.3    89  ALA89       0.1694
     94  C         12.0940    0.0180   -1.9360 C.2    89  ALA89       0.2593
     95  O         11.7300   -0.3380   -3.0580 O.2    89  ALA89      -0.2718
     96  CB         9.9910   -0.0350   -0.6420 C.3    89  ALA89       0.0304
     97  N         13.3030   -0.2350   -1.4490 N.am   90  SER90      -0.1938
     98  CA        14.2700   -1.0090   -2.1900 C.3    90  SER90       0.2055
     99  C         15.3710   -1.5540   -1.2750 C.2    90  SER90       0.2642
    100  O         15.3600   -1.2700   -0.0610 O.2    90  SER90      -0.2714
    101  CB        14.8250   -0.1590   -3.3390 C.3    90  SER90       0.2130
    102  OG        15.5960    0.8800   -2.8430 O.3    90  SER90      -0.2179
    103  N         16.3000   -2.3410   -1.8380 N.am   91  LYS91      -0.1977
    104  CA        17.3510   -3.0200   -1.0730 C.3    91  LYS91       0.1596
    105  C         18.4680   -2.0280   -0.8130 C.2    91  LYS91       0.2287
    106  O         19.2880   -1.7930   -1.6920 O.2    91  LYS91      -0.2864
    107  CB        17.9930   -4.1870   -1.8640 C.3    91  LYS91       0.0298
    108  CG        17.0890   -5.2580   -2.3480 C.3    91  LYS91       0.0038
    109  CD        17.9270   -6.4400   -2.9300 C.3    91  LYS91       0.0206
    110  CE        18.5550   -6.1620   -4.3180 C.3    91  LYS91       0.1093
    111  NZ        17.6440   -5.5130   -5.3910 N.3    91  LYS91      -0.1314
    112  N         19.6980    1.4260   -3.4460 N.3    94  ALA94      -0.1231
    113  CA        19.5230    0.9750   -4.8300 C.3    94  ALA94       0.1694
    114  C         19.2480    2.1030   -5.8400 C.2    94  ALA94       0.2592
    115  O         19.7220    2.0550   -6.9740 O.2    94  ALA94      -0.2718
    116  CB        18.4030   -0.0420   -4.8780 C.3    94  ALA94       0.0304
    117  N         18.4510    3.0940   -5.4600 N.am   95  PHE95      -0.1976
    118  CA        18.1680    4.2090   -6.3890 C.3    95  PHE95       0.1639
    119  C         19.4730    4.9390   -6.7410 C.2    95  PHE95       0.2290
    120  O         19.7530    5.1680   -7.9340 O.2    95  PHE95      -0.2864
    121  CB        17.1050    5.1770   -5.8440 C.3    95  PHE95       0.0560
    122  CG        15.7120    4.7960   -6.2290 C.ar   95  PHE95      -0.0200
    123  CD1       15.2010    3.5390   -5.8720 C.ar   95  PHE95      -0.0042
    124  CD2       14.9250    5.6410   -6.9840 C.ar   95  PHE95      -0.0042
    125  CE1       13.9040    3.1590   -6.2610 C.ar   95  PHE95      -0.0003
    126  CE2       13.6170    5.2520   -7.3590 C.ar   95  PHE95      -0.0003
    127  CZ        13.1370    4.0240   -6.9980 C.ar   95  PHE95      -0.0000
    128  N         22.4930    3.6870   -6.6440 N.3    97  ARG97      -0.1231
    129  CA        23.2600    2.8300   -7.5470 C.3    97  ARG97       0.1694
    130  C         22.8300    2.9420   -9.0180 C.2    97  ARG97       0.2591
    131  O         23.6560    2.7600   -9.8970 O.2    97  ARG97      -0.2718
    132  CB        23.1630    1.3610   -7.1410 C.3    97  ARG97       0.0321
    133  CG        23.9930    0.9620   -5.9340 C.3    97  ARG97       0.0489
    134  CD        24.1120   -0.5690   -5.7970 C.3    97  ARG97       0.2205
    135  NE        22.8570   -1.2140   -5.3500 N.pl3  97  ARG97      -0.0865
    136  CZ        22.4560   -1.2650   -4.0650 C.cat  97  ARG97       0.5346
    137  NH1       23.1980   -0.6930   -3.1270 N.pl3  97  ARG97       0.1354
    138  NH2       21.3250   -1.8800   -3.7030 N.pl3  97  ARG97       0.1354
    139  N         21.5400    3.1840   -9.2680 N.am   98  ARG98      -0.1980
    140  CA        20.9740    3.2910  -10.6180 C.3    98  ARG98       0.1597
    141  C         20.9900    4.7430  -11.1430 C.2    98  ARG98       0.2287
    142  O         20.3600    5.0440  -12.1600 O.2    98  ARG98      -0.2864
    143  CB        19.5080    2.8010  -10.6500 C.3    98  ARG98       0.0334
    144  CG        19.2310    1.3630  -10.1720 C.3    98  ARG98       0.0492
    145  CD        19.8970    0.2710  -10.9930 C.3    98  ARG98       0.2205
    146  NE        19.4130    0.2050  -12.3810 N.pl3  98  ARG98      -0.0865
    147  CZ        18.2330   -0.3060  -12.7600 C.cat  98  ARG98       0.5346
    148  NH1       17.3900   -0.8150  -11.8550 N.pl3  98  ARG98       0.1354
    149  NH2       17.8940   -0.2990  -14.0570 N.pl3  98  ARG98       0.1354
    150  N         12.5220    3.4030    2.2930 N.3   117  LEU117     -0.1231
    151  CA        12.2010    2.2490    3.1360 C.3   117  LEU117      0.1693
    152  C         13.0370    1.0660    2.6840 C.2   117  LEU117      0.2593
    153  O         12.9580    0.6630    1.5200 O.2   117  LEU117     -0.2718
    154  CB        10.7060    1.9110    3.0170 C.3   117  LEU117      0.0284
    155  CG         9.9780    1.2330    4.1580 C.3   117  LEU117      0.0019
    156  CD1        8.4260    1.3630    3.9860 C.3   117  LEU117      0.0001
    157  CD2       10.3040   -0.2400    4.1620 C.3   117  LEU117      0.0001
    158  N         13.8390    0.5250    3.5910 N.am  118  SER118     -0.1938
    159  CA        14.6350   -0.6680    3.3170 C.3   118  SER118      0.2055
    160  C         14.6300   -1.6030    4.5150 C.2   118  SER118      0.2643
    161  O         14.2470   -1.2260    5.6080 O.2   118  SER118     -0.2714
    162  CB        16.0750   -0.2870    2.9600 C.3   118  SER118      0.2130
    163  OG        16.6980    0.3180    4.0760 O.3   118  SER118     -0.2179
    164  N         15.1150   -2.8170    4.3180 N.am  119  GLY119     -0.1954
    165  CA        15.2260   -3.7580    5.4250 C.3   119  GLY119      0.1869
    166  C         16.2790   -3.3760    6.4520 C.2   119  GLY119      0.2309
    167  O         16.0210   -3.5250    7.6440 O.2   119  GLY119     -0.2863
    168  N         21.0590   -6.2910    1.5800 N.3   131  LEU131     -0.1231
    169  CA        20.2910   -7.5250    1.6560 C.3   131  LEU131      0.1678
    170  C         18.8120   -7.2670    1.3990 C.2   131  LEU131      0.2434
    171  O         18.2660   -6.2270    1.7980 O.2   131  LEU131     -0.2733
    172  CB        20.4500   -8.1680    3.0120 C.3   131  LEU131      0.0284
    173  CG        21.8090   -8.7290    3.3890 C.3   131  LEU131      0.0019
    174  CD1       21.7390   -9.2340    4.7920 C.3   131  LEU131      0.0001
    175  CD2       22.2280   -9.8280    2.4120 C.3   131  LEU131      0.0001
    176  N         18.1590   -8.2310    0.7460 N.am  132  PRO132     -0.2718
    177  CA        16.7250   -8.1410    0.5150 C.3   132  PRO132      0.1535
    178  C         16.0380   -8.4130    1.8460 C.2   132  PRO132      0.2598
    179  O         16.5060   -9.2900    2.6010 O.2   132  PRO132     -0.2715
    180  CB        16.4440   -9.2750   -0.4750 C.3   132  PRO132      0.0310
    181  CG        17.5020  -10.2660   -0.2580 C.3   132  PRO132      0.0237
    182  CD        18.7150   -9.5070    0.2630 C.3   132  PRO132      0.0939
    183  N         14.9710   -7.6760    2.1260 N.am  133  ALA133     -0.1964
    184  CA        14.1760   -7.9410    3.3320 C.3   133  ALA133      0.1728
    185  C         12.6770   -7.9520    3.1020 C.2   133  ALA133      0.2616
    186  O         12.1440   -7.3380    2.1900 O.2   133  ALA133     -0.2715
    187  CB        14.5480   -6.9570    4.4820 C.3   133  ALA133      0.0334
    188  N         12.0340   -8.7780    3.9250 N.am  134  TYR134     -0.1974
    189  CA        10.6200   -8.8480    4.0450 C.3   134  TYR134      0.1639
    190  C         10.3480   -8.7760    5.5590 C.2   134  TYR134      0.2290
    191  O         11.2630   -8.7760    6.3880 O.2   134  TYR134     -0.2864
    192  CB        10.0980  -10.1730    3.4690 C.3   134  TYR134      0.0560
    193  CG        10.2890  -10.2840    1.9840 C.ar  134  TYR134     -0.0198
    194  CD1        9.3590   -9.7540    1.0920 C.ar  134  TYR134     -0.0009
    195  CD2       11.4210  -10.8580    1.4760 C.ar  134  TYR134     -0.0009
    196  CE1        9.5690   -9.8480   -0.3100 C.ar  134  TYR134      0.0417
    197  CE2       11.6320  -10.9430    0.1000 C.ar  134  TYR134      0.0417
    198  CZ        10.7070  -10.4540   -0.7690 C.ar  134  TYR134      0.1957
    199  OH        10.9520  -10.5590   -2.1150 O.3   134  TYR134     -0.2866
    200  N          5.6820   -5.2760    8.1240 N.3   162  ASP162     -0.1239
    201  CA         5.4720   -4.5040    6.8750 C.3   162  ASP162      0.1674
    202  C          4.5680   -3.3220    7.1590 C.2   162  ASP162      0.2266
    203  O          4.8080   -2.2150    6.6650 O.2   162  ASP162     -0.2867
    204  CB         4.8270   -5.3600    5.7820 C.3   162  ASP162      0.1410
    205  CG         5.7850   -6.3430    5.1230 C.2   162  ASP162      0.3668
    206  OD1        7.0180   -6.2220    5.2900 O.co2 162  ASP162     -0.2456
    207  OD2        5.3620   -7.2820    4.3930 O.co2 162  ASP162     -0.2456
@<TRIPOS>BOND
     1    72    70   am
     2    63    62    1
     3    69    70    1
     4    69    66    1
     5    70    71    2
     6    65    66    1
     7    65    59   am
     8    68    67    2
     9    66    67    1
    10    58    59    1
    11    58    57    1
    12    58    61    1
    13    62    61    1
    14    62    64    1
    15    84    83    2
    16    83    82    1
    17    67    73   am
    18    59    60    2
    19    55    54    2
    20    51    52    2
    21    51    50    1
    22    73    74    1
    23    82    81    1
    24    82    85    1
    25    81    75   am
    26    75    74    1
    27    75    76    2
    28    74    77    1
    29    54    56   am
    30    54    53    1
    31    85    86    1
    32   149   147    1
    33    50    53    1
    34    50    49    1
    35    77    79    1
    36    77    78    1
    37    86    88   ar
    38    86    87   ar
    39   147   146    2
    40   147   148    1
    41   146   145    1
    42    88    90   ar
    43   142   141    2
    44    78    80    1
    45    87    89   ar
    46    47    45    1
    47   141   140    1
    48   145   144    1
    49    90    91   ar
    50   143   140    1
    51   143   144    1
    52   140   139    1
    53    89    91   ar
    54    43    42    1
    55    43    44    2
    56    42    45    1
    57    42    41    1
    58    46    45    1
    59    46    48    1
    60   131   130    2
    61   139   130   am
    62   130   129    1
    63   120   119    2
    64   129   132    1
    65   129   128    1
    66     6     5    1
    67   126   127   ar
    68   126   124   ar
    69   132   133    1
    70   127   125   ar
    71   124   122   ar
    72   115   114    2
    73   119   118    1
    74     5     2    1
    75    13    11    1
    76   118   121    1
    77   118   117    1
    78   125   123   ar
    79   122   123   ar
    80   122   121    1
    81     2     1    1
    82     2     3    1
    83   133   134    1
    84   114   117   am
    85   114   113    1
    86   134   135    1
    87   111   110    1
    88   135   136    2
    89    11    12    1
    90    11     8    1
    91    14    12    1
    92     3     4    2
    93   116   113    1
    94   113   112    1
    95   110   109    1
    96     8     7    1
    97     8     9    1
    98   136   138    1
    99   136   137    1
   100    23    21   ar
   101   101   102    1
   102   101    98    1
   103    15     9   am
   104    15    16    1
   105    95    94    2
   106     9    10    2
   107   109   108    1
   108    21    20    1
   109    21    22   ar
   110    20    19    1
   111   108   107    1
   112    98    97    1
   113    98    99    1
   114   199   198    1
   115    16    19    1
   116    16    17    1
   117    94    97   am
   118    94    93    1
   119   107   104    1
   120   103    99   am
   121   103   104    1
   122    92    93    1
   123   106   105    2
   124    99   100    2
   125    18    17    2
   126   104   105    1
   127    93    96    1
   128    17    24   am
   129   198   196   ar
   130   198   197   ar
   131   180   181    1
   132   180   177    1
   133   196   194   ar
   134   181   182    1
   135   197   195   ar
   136    39    40    2
   137    39    38    1
   138   182   176    1
   139    24    25    1
   140   177   176    1
   141   177   178    1
   142    38    37    1
   143   176   170   am
   144   194   193   ar
   145    37    34   am
   146   170   169    1
   147   170   171    2
   148   195   193   ar
   149    25    26    1
   150    25    28    1
   151   153   152    2
   152   168   169    1
   153   169   172    1
   154    27    26    2
   155   178   183   am
   156   178   179    2
   157    26    32   am
   158   193   192    1
   159   183   184    1
   160   186   185    2
   161   150   151    1
   162    32    33    1
   163    29    28    1
   164    29    31    1
   165   175   173    1
   166    34    35    2
   167    34    33    1
   168   152   151    1
   169   152   158   am
   170    28    30    1
   171   162   159    1
   172   162   163    1
   173   172   173    1
   174   154   151    1
   175   154   155    1
   176   185   184    1
   177   185   188   am
   178    33    36    1
   179   159   158    1
   180   159   160    1
   181   184   187    1
   182   173   174    1
   183   192   189    1
   184   188   189    1
   185   156   155    1
   186   189   190    1
   187   155   157    1
   188   164   160   am
   189   164   165    1
   190   207   205   ar
   191   160   161    2
   192   205   206   ar
   193   205   204    1
   194   165   166    1
   195   190   191    2
   196   204   201    1
   197   166   167    2
   198   203   202    2
   199   201   202    1
   200   201   200    1
