@<TRIPOS>MOLECULE
tmp/1xa5A00.pdb
 222 207 0 0 0
SMALL
GASTEIGER

@<TRIPOS>ATOM
      1  N         24.2030   29.8430  127.5830 N.3     9  GLU9       -0.1231
      2  CA        23.0290   29.3800  128.3070 C.3     9  GLU9        0.1699
      3  C         22.5730   28.0330  127.7530 C.2     9  GLU9        0.2592
      4  O         22.1390   27.1620  128.5080 O.2     9  GLU9       -0.2718
      5  CB        21.9020   30.4160  128.2330 C.3     9  GLU9        0.0402
      6  CG        22.2260   31.7230  128.9510 C.3     9  GLU9        0.1161
      7  CD        21.3050   32.8660  128.5540 C.2     9  GLU9        0.3649
      8  OE1       20.4920   32.6860  127.6210 O.co2   9  GLU9       -0.2457
      9  OE2       21.3930   33.9520  129.1740 O.co2   9  GLU9       -0.2457
     10  N         22.6860   27.8550  126.4400 N.am   10  PHE10      -0.1976
     11  CA        22.3360   26.5800  125.8200 C.3    10  PHE10       0.1639
     12  C         23.3110   25.4840  126.2420 C.2    10  PHE10       0.2290
     13  O         22.9080   24.3610  126.5130 O.2    10  PHE10      -0.2864
     14  CB        22.3110   26.7020  124.2930 C.3    10  PHE10       0.0560
     15  CG        21.1950   27.5710  123.7680 C.ar   10  PHE10      -0.0200
     16  CD1       20.0360   27.7600  124.5030 C.ar   10  PHE10      -0.0042
     17  CD2       21.3100   28.2010  122.5380 C.ar   10  PHE10      -0.0042
     18  CE1       19.0130   28.5590  124.0190 C.ar   10  PHE10      -0.0003
     19  CE2       20.2930   29.0040  122.0540 C.ar   10  PHE10      -0.0003
     20  CZ        19.1430   29.1820  122.7940 C.ar   10  PHE10      -0.0000
     21  N         22.6910   24.4690  129.9100 N.3    13  ALA13      -0.1245
     22  CA        21.5120   23.6120  129.9680 C.3    13  ALA13       0.1562
     23  C         21.8480   22.1980  129.5130 C.2    13  ALA13       0.2260
     24  O         21.4880   21.2260  130.1730 O.2    13  ALA13      -0.2867
     25  CB        20.3980   24.1900  129.1190 C.3    13  ALA13       0.0290
     26  N         23.8400   20.0600  131.9550 N.3    16  LEU16      -0.1231
     27  CA        23.0780   19.4800  133.0580 C.3    16  LEU16       0.1693
     28  C         22.6360   18.0600  132.7270 C.2    16  LEU16       0.2592
     29  O         22.5610   17.2050  133.6120 O.2    16  LEU16      -0.2718
     30  CB        21.8550   20.3380  133.3830 C.3    16  LEU16       0.0284
     31  CG        22.1580   21.7220  133.9650 C.3    16  LEU16       0.0019
     32  CD1       20.9510   22.2640  134.7150 C.3    16  LEU16       0.0001
     33  CD2       23.3790   21.6770  134.8720 C.3    16  LEU16       0.0001
     34  N         22.3500   17.8150  131.4510 N.am   17  PHE17      -0.1976
     35  CA        21.9190   16.5000  130.9920 C.3    17  PHE17       0.1639
     36  C         23.1130   15.6200  130.6350 C.2    17  PHE17       0.2290
     37  O         23.1810   14.4590  131.0370 O.2    17  PHE17      -0.2864
     38  CB        21.0100   16.6410  129.7670 C.3    17  PHE17       0.0560
     39  CG        19.6510   17.2010  130.0780 C.ar   17  PHE17      -0.0200
     40  CD1       19.4790   18.5570  130.2960 C.ar   17  PHE17      -0.0042
     41  CD2       18.5450   16.3740  130.1380 C.ar   17  PHE17      -0.0042
     42  CE1       18.2270   19.0760  130.5690 C.ar   17  PHE17      -0.0003
     43  CE2       17.2850   16.8940  130.4120 C.ar   17  PHE17      -0.0003
     44  CZ        17.1330   18.2440  130.6270 C.ar   17  PHE17      -0.0000
     45  N         18.4230   12.8210  135.2780 N.3    33  VAL33      -0.1231
     46  CA        17.8620   14.1660  135.3330 C.3    33  VAL33       0.1692
     47  C         16.3640   14.1350  135.6460 C.2    33  VAL33       0.2591
     48  O         15.8830   14.9020  136.4780 O.2    33  VAL33      -0.2718
     49  CB        18.0700   14.9350  134.0110 C.3    33  VAL33       0.0266
     50  CG1       17.1980   16.1800  133.9840 C.3    33  VAL33       0.0020
     51  CG2       19.5340   15.3160  133.8340 C.3    33  VAL33       0.0020
     52  N         15.6260   13.2550  134.9800 N.am   34  MET34      -0.1979
     53  CA        14.1860   13.1590  135.2100 C.3    34  MET34       0.1605
     54  C         13.9030   12.7500  136.6530 C.2    34  MET34       0.2287
     55  O         13.0330   13.3260  137.3070 O.2    34  MET34      -0.2864
     56  CB        13.5430   12.1720  134.2340 C.3    34  MET34       0.0413
     57  CG        13.5470   12.6580  132.7790 C.3    34  MET34       0.0598
     58  SD        12.7970   14.2980  132.6080 S.3    34  MET34      -0.1393
     59  CE        14.1670   15.2510  132.1050 C.3    34  MET34       0.0692
     60  N         14.1760   15.3780  139.0800 N.3    37  LEU37      -0.1245
     61  CA        13.0240   16.2760  139.0310 C.3    37  LEU37       0.1561
     62  C         11.7570   15.6570  139.6250 C.2    37  LEU37       0.2260
     63  O         10.6790   16.2500  139.5540 O.2    37  LEU37      -0.2867
     64  CB        12.7540   16.7100  137.5880 C.3    37  LEU37       0.0270
     65  CG        13.7490   17.7050  136.9870 C.3    37  LEU37       0.0019
     66  CD1       13.5640   17.7840  135.4840 C.3    37  LEU37       0.0001
     67  CD2       13.5970   19.0840  137.6170 C.3    37  LEU37       0.0001
     68  N         10.4490   12.5980  138.8750 N.3    39  GLN39      -0.1245
     69  CA         9.8120   11.6130  138.0090 C.3    39  GLN39       0.1566
     70  C         10.4540   10.2370  138.1750 C.2    39  GLN39       0.2260
     71  O         11.5190   10.1090  138.7730 O.2    39  GLN39      -0.2867
     72  CB         9.9130   12.0530  136.5470 C.3    39  GLN39       0.0367
     73  CG         9.2790   13.4070  136.2610 C.3    39  GLN39       0.0905
     74  CD         9.5940   13.9180  134.8650 C.2    39  GLN39       0.2608
     75  OE1        9.5640   13.1540  133.9020 O.2    39  GLN39      -0.2717
     76  NE2        9.8940   15.2120  134.7530 N.am   39  GLN39      -0.0878
     77  N         18.9200   18.5840  121.0250 N.3    66  PHE66      -0.1241
     78  CA        18.5940   19.0980  122.3460 C.3    66  PHE66       0.1605
     79  C         17.9370   20.4760  122.2170 C.2    66  PHE66       0.2264
     80  O         17.0090   20.8080  122.9620 O.2    66  PHE66      -0.2867
     81  CB        19.8680   19.1670  123.1940 C.3    66  PHE66       0.0534
     82  CG        19.6680   19.7520  124.5650 C.ar   66  PHE66      -0.0203
     83  CD1       19.1930   18.9690  125.6060 C.ar   66  PHE66      -0.0042
     84  CD2       19.9920   21.0750  124.8200 C.ar   66  PHE66      -0.0042
     85  CE1       19.0230   19.4980  126.8730 C.ar   66  PHE66      -0.0003
     86  CE2       19.8260   21.6160  126.0880 C.ar   66  PHE66      -0.0003
     87  CZ        19.3400   20.8280  127.1170 C.ar   66  PHE66      -0.0000
     88  N         14.3670   19.8420  121.0970 N.3    69  MET69      -0.1230
     89  CA        13.6500   19.3740  122.2810 C.3    69  MET69       0.1702
     90  C         13.3000   20.5490  123.1860 C.2    69  MET69       0.2592
     91  O         12.2040   20.6050  123.7490 O.2    69  MET69      -0.2718
     92  CB        14.4920   18.3630  123.0520 C.3    69  MET69       0.0401
     93  CG        13.9220   17.9820  124.4080 C.3    69  MET69       0.0596
     94  SD        14.5710   16.4050  125.0050 S.3    69  MET69      -0.1393
     95  CE        15.4940   16.9040  126.4270 C.3    69  MET69       0.0692
     96  N         14.2360   21.4850  123.3160 N.am   70  MET70      -0.1979
     97  CA        14.0380   22.6720  124.1370 C.3    70  MET70       0.1605
     98  C         12.9130   23.5480  123.5920 C.2    70  MET70       0.2287
     99  O         12.1450   24.1250  124.3600 O.2    70  MET70      -0.2864
    100  CB        15.3350   23.4920  124.2130 C.3    70  MET70       0.0413
    101  CG        15.2010   24.7930  124.9930 C.3    70  MET70       0.0598
    102  SD        16.6850   25.8230  124.9600 S.3    70  MET70      -0.1393
    103  CE        17.9290   24.6610  125.4790 C.3    70  MET70       0.0692
    104  N          5.1560   15.7650  128.0880 N.3    75  THR75      -0.1203
    105  CA         6.0600   15.8790  129.2260 C.3    75  THR75       0.1994
    106  C          6.0860   17.3390  129.6800 C.2    75  THR75       0.2617
    107  O          6.2610   18.2490  128.8670 O.2    75  THR75      -0.2717
    108  CB         7.4750   15.3920  128.8480 C.3    75  THR75       0.1784
    109  OG1        7.7820   14.1870  129.5630 O.3    75  THR75      -0.2211
    110  CG2        8.5460   16.3830  129.3060 C.3    75  THR75       0.0376
    111  N          5.9150   17.5500  130.9810 N.am   76  ASP76      -0.1973
    112  CA         5.4290   18.8230  131.5040 C.3    76  ASP76       0.1709
    113  C          3.9110   18.7400  131.6700 C.2    76  ASP76       0.2293
    114  O          3.2050   19.7480  131.5980 O.2    76  ASP76      -0.2864
    115  CB         5.8060   19.9840  130.5800 C.3    76  ASP76       0.1436
    116  CG         7.1990   20.5170  130.8590 C.2    76  ASP76       0.3671
    117  OD1        8.1420   19.7170  131.0000 O.co2  76  ASP76      -0.2456
    118  OD2        7.3460   21.7520  130.9720 O.co2  76  ASP76      -0.2456
    119  N          3.9920   15.6770  136.1960 N.3    80  GLU80      -0.1231
    120  CA         5.4140   15.9950  136.1430 C.3    80  GLU80       0.1699
    121  C          5.7230   17.3180  136.8440 C.2    80  GLU80       0.2592
    122  O          6.7620   17.4510  137.4980 O.2    80  GLU80      -0.2718
    123  CB         5.9040   16.0290  134.6940 C.3    80  GLU80       0.0402
    124  CG         5.3650   14.8910  133.8370 C.3    80  GLU80       0.1161
    125  CD         6.2600   14.5660  132.6520 C.2    80  GLU80       0.3649
    126  OE1        7.0820   15.4260  132.2640 O.co2  80  GLU80      -0.2457
    127  OE2        6.1420   13.4480  132.1110 O.co2  80  GLU80      -0.2457
    128  N          4.8190   18.2870  136.7250 N.am   81  ILE81      -0.1980
    129  CA         5.0540   19.6040  137.3060 C.3    81  ILE81       0.1595
    130  C          4.8020   19.6040  138.8100 C.2    81  ILE81       0.2287
    131  O          5.4820   20.3090  139.5510 O.2    81  ILE81      -0.2864
    132  CB         4.1980   20.6900  136.6290 C.3    81  ILE81       0.0276
    133  CG1        4.5450   20.8070  135.1440 C.3    81  ILE81       0.0022
    134  CG2        4.4390   22.0320  137.2950 C.3    81  ILE81       0.0022
    135  CD1        3.4110   21.3440  134.3000 C.3    81  ILE81       0.0001
    136  N          7.8580   18.1380  140.1920 N.3    84  ALA84      -0.1245
    137  CA         8.9450   19.1150  140.1340 C.3    84  ALA84       0.1562
    138  C          8.7740   20.1970  141.1950 C.2    84  ALA84       0.2260
    139  O          9.7440   20.6310  141.8220 O.2    84  ALA84      -0.2867
    140  CB         9.0110   19.7510  138.7530 C.3    84  ALA84       0.0290
    141  N         11.3380   21.3790  144.4060 N.3    88  PHE88      -0.1241
    142  CA        11.7280   22.7540  144.6920 C.3    88  PHE88       0.1605
    143  C         11.2180   23.2500  146.0510 C.2    88  PHE88       0.2264
    144  O         11.9090   24.0110  146.7290 O.2    88  PHE88      -0.2867
    145  CB        11.2520   23.6810  143.5780 C.3    88  PHE88       0.0534
    146  CG        12.1850   23.7370  142.3980 C.ar   88  PHE88      -0.0203
    147  CD1       13.2500   24.6260  142.3820 C.ar   88  PHE88      -0.0042
    148  CD2       11.9950   22.9020  141.3080 C.ar   88  PHE88      -0.0042
    149  CE1       14.1090   24.6850  141.3050 C.ar   88  PHE88      -0.0003
    150  CE2       12.8480   22.9500  140.2230 C.ar   88  PHE88      -0.0003
    151  CZ        13.9110   23.8460  140.2180 C.ar   88  PHE88      -0.0000
    152  N         18.5240   24.4270  142.2500 N.3   105  MET105     -0.1245
    153  CA        19.2640   24.6580  141.0110 C.3   105  MET105      0.1570
    154  C         20.7190   24.2200  141.1480 C.2   105  MET105      0.2261
    155  O         21.2660   23.5680  140.2580 O.2   105  MET105     -0.2867
    156  CB        19.2040   26.1320  140.6240 C.3   105  MET105      0.0387
    157  CG        17.8280   26.5740  140.1710 C.3   105  MET105      0.0595
    158  SD        17.2450   25.6450  138.7380 S.3   105  MET105     -0.1393
    159  CE        15.6650   26.4760  138.4510 C.3   105  MET105      0.0692
    160  N         20.9800   20.5710  141.0900 N.3   108  LEU108     -0.1245
    161  CA        20.7740   20.0150  139.7550 C.3   108  LEU108      0.1561
    162  C         22.0010   20.2180  138.8720 C.2   108  LEU108      0.2260
    163  O         22.1920   19.5000  137.8890 O.2   108  LEU108     -0.2867
    164  CB        19.5400   20.6380  139.0970 C.3   108  LEU108      0.0270
    165  CG        18.2300   20.4790  139.8740 C.3   108  LEU108      0.0019
    166  CD1       17.1010   21.2530  139.2010 C.3   108  LEU108      0.0001
    167  CD2       17.8590   19.0080  140.0330 C.3   108  LEU108      0.0001
    168  N         23.1380   23.6200  138.1430 N.3   110  GLU110     -0.1245
    169  CA        23.1380   25.0160  137.7300 C.3   110  GLU110      0.1567
    170  C         23.6620   25.9100  138.8500 C.2   110  GLU110      0.2260
    171  O         23.2390   25.7870  139.9950 O.2   110  GLU110     -0.2867
    172  CB        21.7170   25.4420  137.3610 C.3   110  GLU110      0.0388
    173  CG        21.6250   26.8290  136.7460 C.3   110  GLU110      0.1160
    174  CD        21.5870   26.7920  135.2310 C.2   110  GLU110      0.3649
    175  OE1       21.8530   27.8440  134.6050 O.co2 110  GLU110     -0.2457
    176  OE2       21.2960   25.7120  134.6720 O.co2 110  GLU110     -0.2457
    177  N         23.7580   29.7030  140.0640 N.3   112  LEU112     -0.1245
    178  CA        23.1280   30.9950  139.8160 C.3   112  LEU112      0.1561
    179  C         23.7180   32.0730  140.7150 C.2   112  LEU112      0.2260
    180  O         23.9510   31.8380  141.9020 O.2   112  LEU112     -0.2867
    181  CB        21.6170   30.9020  140.0450 C.3   112  LEU112      0.0270
    182  CG        20.8510   29.9640  139.1100 C.3   112  LEU112      0.0019
    183  CD1       19.4870   29.6380  139.6940 C.3   112  LEU112      0.0001
    184  CD2       20.7090   30.5700  137.7230 C.3   112  LEU112      0.0001
    185  N         14.9050   35.6480  138.3720 N.3   120  MET120     -0.1245
    186  CA        14.0730   34.4690  138.1740 C.3   120  MET120      0.1570
    187  C         12.8010   34.5680  139.0140 C.2   120  MET120      0.2261
    188  O         11.6920   34.4160  138.5020 O.2   120  MET120     -0.2867
    189  CB        14.8540   33.2100  138.5550 C.3   120  MET120      0.0387
    190  CG        14.6140   32.0210  137.6460 C.3   120  MET120      0.0595
    191  SD        15.9650   30.8110  137.7000 S.3   120  MET120     -0.1393
    192  CE        17.3780   31.8650  137.5690 C.3   120  MET120      0.0692
    193  N          6.2720   29.3960  134.9930 N.3   140  MET140     -0.1230
    194  CA         7.7240   29.5230  134.9260 C.3   140  MET140      0.1702
    195  C          8.3560   28.3520  134.1720 C.2   140  MET140      0.2592
    196  O          9.3550   28.5190  133.4720 O.2   140  MET140     -0.2718
    197  CB         8.2940   29.5950  136.3460 C.3   140  MET140      0.0401
    198  CG         9.8120   29.5690  136.4240 C.3   140  MET140      0.0596
    199  SD        10.4180   29.5120  138.1300 S.3   140  MET140     -0.1393
    200  CE        11.4280   28.0510  138.0710 C.3   140  MET140      0.0692
    201  N          7.7680   27.1690  134.3170 N.am  141  MET141     -0.1979
    202  CA         8.3360   25.9610  133.7320 C.3   141  MET141      0.1605
    203  C          7.8430   25.7550  132.3010 C.2   141  MET141      0.2287
    204  O          8.4920   25.0760  131.5100 O.2   141  MET141     -0.2864
    205  CB         7.9920   24.7370  134.5900 C.3   141  MET141      0.0413
    206  CG         8.8340   24.5970  135.8570 C.3   141  MET141      0.0598
    207  SD        10.6040   24.7200  135.5460 S.3   141  MET141     -0.1393
    208  CE        11.2900   24.1290  137.0750 C.3   141  MET141      0.0692
    209  N          7.0150   28.4450  130.3810 N.3   143  ALA143     -0.1231
    210  CA         7.2000   29.7440  129.7410 C.3   143  ALA143      0.1694
    211  C          7.8330   29.5900  128.3630 C.2   143  ALA143      0.2591
    212  O          8.4760   28.5790  128.0740 O.2   143  ALA143     -0.2718
    213  CB         8.0640   30.6480  130.6170 C.3   143  ALA143      0.0304
    214  N          7.6480   30.6070  127.5250 N.am  144  LYS144     -0.1980
    215  CA         8.1910   30.6220  126.1680 C.3   144  LYS144      0.1596
    216  C          7.2960   29.8410  125.2100 C.2   144  LYS144      0.2287
    217  O          7.3720   30.0180  123.9930 O.2   144  LYS144     -0.2864
    218  CB         9.6060   30.0410  126.1450 C.3   144  LYS144      0.0298
    219  CG        10.6280   30.8430  126.9390 C.3   144  LYS144      0.0038
    220  CD        11.9590   30.9010  126.2010 C.3   144  LYS144      0.0206
    221  CE        13.0460   31.5680  127.0310 C.3   144  LYS144      0.1093
    222  NZ        13.9560   32.3800  126.1740 N.3   144  LYS144     -0.1314
@<TRIPOS>BOND
     1    77    78    1
     2    88    89    1
     3    19    17   ar
     4    19    20   ar
     5    79    78    1
     6    79    80    2
     7    89    92    1
     8    89    90    1
     9    78    81    1
    10    17    15   ar
    11    20    18   ar
    12    92    93    1
    13    90    96   am
    14    90    91    2
    15    81    82    1
    16    96    97    1
    17    98    97    1
    18    98    99    2
    19    15    14    1
    20    15    16   ar
    21   217   216    2
    22    18    16   ar
    23    97   100    1
    24   100   101    1
    25    14    11    1
    26    93    94    1
    27    82    84   ar
    28    82    83   ar
    29    84    86   ar
    30   102   101    1
    31   102   103    1
    32    94    95    1
    33   216   215    1
    34    83    85   ar
    35    11    12    1
    36    11    10    1
    37    86    87   ar
    38   218   215    1
    39   218   219    1
    40   215   214    1
    41   222   221    1
    42   220   219    1
    43   220   221    1
    44    12    13    2
    45    10     3   am
    46    85    87   ar
    47   214   211   am
    48     1     2    1
    49     8     7   ar
    50     3     2    1
    51     3     4    2
    52   212   211    2
    53   104   105    1
    54     5     2    1
    55     5     6    1
    56   211   210    1
    57     7     6    1
    58     7     9   ar
    59   108   105    1
    60   108   110    1
    61   108   109    1
    62   107   106    2
    63    25    22    1
    64   105   106    1
    65    23    22    1
    66    23    24    2
    67   106   111   am
    68   210   209    1
    69   210   213    1
    70    38    39    1
    71    38    35    1
    72    21    22    1
    73    39    41   ar
    74    39    40   ar
    75    41    43   ar
    76    40    42   ar
    77    43    44   ar
    78    42    44   ar
    79   115   116    1
    80   115   112    1
    81    36    35    1
    82    36    37    2
    83   116   118   ar
    84   116   117   ar
    85   111   112    1
    86    35    34    1
    87    34    28   am
    88   112   113    1
    89   204   203    2
    90   114   113    2
    91    26    27    1
    92    59    58    1
    93   127   125   ar
    94   126   125   ar
    95   203   202    1
    96    58    57    1
    97   125   124    1
    98    28    27    1
    99    28    29    2
   100    57    56    1
   101    27    30    1
   102    30    31    1
   103   196   195    2
   104   202   201    1
   105   202   205    1
   106    51    49    1
   107   124   123    1
   108    75    74    2
   109    31    32    1
   110    31    33    1
   111    50    49    1
   112    49    46    1
   113   195   201   am
   114   195   194    1
   115    56    53    1
   116   135   133    1
   117   205   206    1
   118   175   174   ar
   119   176   174   ar
   120   123   120    1
   121    76    74   am
   122    74    73    1
   123   194   193    1
   124   194   197    1
   125    52    53    1
   126    52    47   am
   127   133   132    1
   128    53    54    1
   129   174   173    1
   130    45    46    1
   131    46    47    1
   132    66    65    1
   133   207   206    1
   134   207   208    1
   135    47    48    2
   136   120   119    1
   137   120   121    1
   138    73    72    1
   139   197   198    1
   140   198   199    1
   141    72    69    1
   142   132   134    1
   143   132   129    1
   144    54    55    2
   145   128   121   am
   146   128   129    1
   147   173   172    1
   148   121   122    2
   149    65    64    1
   150    65    67    1
   151   129   130    1
   152   172   169    1
   153   192   191    1
   154    64    61    1
   155   190   191    1
   156   190   189    1
   157   184   182    1
   158   169   168    1
   159   169   170    1
   160   163   162    2
   161    69    70    1
   162    69    68    1
   163   200   199    1
   164   186   185    1
   165   186   189    1
   166   186   187    1
   167    70    71    2
   168   159   158    1
   169   188   187    2
   170   158   157    1
   171   140   137    1
   172   130   131    2
   173   170   171    2
   174   162   161    1
   175    61    60    1
   176    61    62    1
   177   164   161    1
   178   164   165    1
   179   182   183    1
   180   182   181    1
   181   166   165    1
   182    63    62    2
   183   161   160    1
   184   178   181    1
   185   178   177    1
   186   178   179    1
   187   165   167    1
   188   137   136    1
   189   137   138    1
   190   157   156    1
   191   151   150   ar
   192   151   149   ar
   193   150   148   ar
   194   155   154    2
   195   156   153    1
   196   179   180    2
   197   153   154    1
   198   153   152    1
   199   138   139    2
   200   149   147   ar
   201   148   146   ar
   202   147   146   ar
   203   146   145    1
   204   145   142    1
   205   141   142    1
   206   142   143    1
   207   143   144    2
