@<TRIPOS>MOLECULE
tmp/1xa8B00.pdb
 109 103 0 0 0
SMALL
GASTEIGER

@<TRIPOS>ATOM
      1  N         15.3450   14.6240   38.2070 N.3    54  CYS54      -0.1235
      2  CA        16.3790   15.5570   37.7360 C.3    54  CYS54       0.1677
      3  C         17.6870   15.4040   38.5300 C.2    54  CYS54       0.2270
      4  O         17.6700   15.3600   39.7520 O.2    54  CYS54      -0.2867
      5  CB        15.8820   17.0290   37.8080 C.3    54  CYS54       0.0956
      6  SG        16.9260   18.3100   36.9060 S.3    54  CYS54      -0.0801
      7  N         20.3420   17.6660   38.1830 N.3    56  CYS56      -0.1221
      8  CA        20.8230   19.0000   38.4280 C.3    56  CYS56       0.1808
      9  C         21.1150   19.2770   39.9250 C.2    56  CYS56       0.2602
     10  O         20.3560   18.8260   40.8270 O.2    56  CYS56      -0.2717
     11  CB        19.8140   20.0050   37.8440 C.3    56  CYS56       0.0970
     12  SG        20.4270   21.7040   37.6490 S.3    56  CYS56      -0.0800
     13  N         22.2280   20.0000   40.1580 N.am   57  THR57      -0.1939
     14  CA        22.6760   20.4350   41.4880 C.3    57  THR57       0.2028
     15  C         21.7300   21.4940   42.0820 C.2    57  THR57       0.2642
     16  O         21.5000   21.5720   43.2900 O.2    57  THR57      -0.2714
     17  CB        24.1510   21.0300   41.4360 C.3    57  THR57       0.1808
     18  OG1       24.2080   22.1590   40.5340 O.3    57  THR57      -0.2208
     19  CG2       25.2050   19.9470   41.0120 C.3    57  THR57       0.0379
     20  N         21.1570   22.3160   41.2060 N.am   58  LYS58      -0.1963
     21  CA        20.2720   23.3910   41.6850 C.3    58  LYS58       0.1728
     22  C         18.8820   22.9240   42.2570 C.2    58  LYS58       0.2616
     23  O         18.1970   23.6580   42.9870 O.2    58  LYS58      -0.2715
     24  CB        20.2730   24.5300   40.6640 C.3    58  LYS58       0.0311
     25  CG        21.6300   25.2950   40.7430 C.3    58  LYS58       0.0038
     26  CD        22.3240   25.4670   39.3530 C.3    58  LYS58       0.0206
     27  CE        21.7910   26.6780   38.4600 C.3    58  LYS58       0.1093
     28  NZ        21.4140   26.3680   36.9730 N.3    58  LYS58      -0.1314
     29  N         18.5680   21.6500   42.0250 N.am   59  CYS59      -0.1968
     30  CA        17.2730   21.0260   42.3580 C.3    59  CYS59       0.1712
     31  C         17.1110   20.3750   43.7340 C.2    59  CYS59       0.2296
     32  O         17.9770   19.6140   44.1570 O.2    59  CYS59      -0.2864
     33  CB        17.0220   19.9460   41.3340 C.3    59  CYS59       0.0983
     34  SG        16.0470   20.6310   40.1410 S.3    59  CYS59      -0.0798
     35  N         19.3660   33.3780   39.0780 N.3    94  ALA94      -0.1231
     36  CA        19.1400   32.1850   38.2430 C.3    94  ALA94       0.1679
     37  C         17.9290   32.4460   37.3490 C.2    94  ALA94       0.2434
     38  O         16.9960   33.1730   37.7660 O.2    94  ALA94      -0.2733
     39  CB        18.9160   30.9450   39.0940 C.3    94  ALA94       0.0304
     40  N         17.9360   31.8700   36.1140 N.am   95  PRO95      -0.2718
     41  CA        16.7650   31.9610   35.2560 C.3    95  PRO95       0.1535
     42  C         15.4860   31.4690   35.9580 C.2    95  PRO95       0.2598
     43  O         14.3760   31.9950   35.6920 O.2    95  PRO95      -0.2715
     44  CB        17.1500   31.0790   34.0630 C.3    95  PRO95       0.0310
     45  CG        18.6860   31.1860   33.9980 C.3    95  PRO95       0.0237
     46  CD        19.0610   31.1510   35.4650 C.3    95  PRO95       0.0939
     47  N         15.6530   30.4750   36.8430 N.am   96  ILE96      -0.1978
     48  CA        14.6100   29.9910   37.7740 C.3    96  ILE96       0.1596
     49  C         14.8830   30.3820   39.2220 C.2    96  ILE96       0.2287
     50  O         15.8160   29.8640   39.8520 O.2    96  ILE96      -0.2864
     51  CB        14.4640   28.4860   37.7020 C.3    96  ILE96       0.0276
     52  CG1       14.4490   28.0260   36.2080 C.3    96  ILE96       0.0022
     53  CG2       13.2040   28.0270   38.4900 C.3    96  ILE96       0.0022
     54  CD1       14.1590   26.5340   36.0410 C.3    96  ILE96       0.0001
     55  N         14.3390   30.0740   42.9770 N.3    98  ARG98      -0.1245
     56  CA        13.8180   28.9950   43.8100 C.3    98  ARG98       0.1563
     57  C         13.4990   29.5170   45.1580 C.2    98  ARG98       0.2260
     58  O         14.3550   30.0190   45.8700 O.2    98  ARG98      -0.2867
     59  CB        14.7460   27.7690   43.8120 C.3    98  ARG98       0.0307
     60  CG        15.0780   27.3460   42.3500 C.3    98  ARG98       0.0489
     61  CD        15.3780   25.9150   42.1510 C.3    98  ARG98       0.2205
     62  NE        16.0960   25.8030   40.8910 N.pl3  98  ARG98      -0.0865
     63  CZ        15.8400   24.9360   39.9000 C.cat  98  ARG98       0.5346
     64  NH1       16.6070   25.0080   38.7960 N.pl3  98  ARG98       0.1354
     65  NH2       14.8640   23.9980   39.9890 N.pl3  98  ARG98       0.1354
     66  N         12.1310   33.8730   28.4070 N.3   117  HIS117     -0.1241
     67  CA        12.5440   32.4810   28.6950 C.3   117  HIS117      0.1621
     68  C         11.4950   31.5540   28.1030 C.2   117  HIS117      0.2264
     69  O         10.3140   31.8960   28.1800 O.2   117  HIS117     -0.2867
     70  CB        12.6330   32.3170   30.2140 C.3   117  HIS117      0.0745
     71  CG        13.3620   31.0910   30.6860 C.ar  117  HIS117      0.0817
     72  ND1       12.7980   29.8340   30.6790 N.ar  117  HIS117     -0.2268
     73  CD2       14.5780   30.9500   31.2680 C.ar  117  HIS117      0.1154
     74  CE1       13.6400   28.9670   31.2150 C.ar  117  HIS117      0.1986
     75  NE2       14.7290   29.6200   31.5810 N.ar  117  HIS117     -0.2212
     76  N         19.3020   15.6680   33.1470 N.3   143  PHE143     -0.1241
     77  CA        20.5920   16.1230   33.7270 C.3   143  PHE143      0.1605
     78  C         21.2490   15.0040   34.5470 C.2   143  PHE143      0.2264
     79  O         21.6370   15.2260   35.6680 O.2   143  PHE143     -0.2867
     80  CB        20.4610   17.4360   34.5380 C.3   143  PHE143      0.0534
     81  CG        19.9880   18.5980   33.7140 C.ar  143  PHE143     -0.0203
     82  CD1       20.8410   19.2270   32.8140 C.ar  143  PHE143     -0.0042
     83  CD2       18.6610   19.0050   33.7520 C.ar  143  PHE143     -0.0042
     84  CE1       20.3820   20.2660   31.9970 C.ar  143  PHE143     -0.0003
     85  CE2       18.2080   20.0220   32.9520 C.ar  143  PHE143     -0.0003
     86  CZ        19.0560   20.6620   32.0730 C.ar  143  PHE143     -0.0000
     87  N         24.8890   15.0970   35.6700 N.3   146  SER146     -0.1217
     88  CA        25.0340   16.1560   36.6650 C.3   146  SER146      0.1889
     89  C         25.1360   15.6820   38.0930 C.2   146  SER146      0.2288
     90  O         25.6470   16.4370   38.9390 O.2   146  SER146     -0.2866
     91  CB        23.9820   17.2710   36.4900 C.3   146  SER146      0.2089
     92  OG        24.1910   17.9320   35.2350 O.3   146  SER146     -0.2183
     93  N         28.5110   15.8820   39.9480 N.3   149  GLU149     -0.1245
     94  CA        28.8570   17.1840   40.4640 C.3   149  GLU149      0.1567
     95  C         28.3810   17.3990   41.8910 C.2   149  GLU149      0.2260
     96  O         28.8220   18.3280   42.5320 O.2   149  GLU149     -0.2867
     97  CB        28.3010   18.2790   39.5620 C.3   149  GLU149      0.0388
     98  CG        29.1150   18.6120   38.2820 C.3   149  GLU149      0.1160
     99  CD        28.3980   19.6900   37.4290 C.2   149  GLU149      0.3649
    100  OE1       28.2700   20.8440   37.9240 O.co2 149  GLU149     -0.2457
    101  OE2       27.9540   19.3820   36.2620 O.co2 149  GLU149     -0.2457
    102  N         17.4090   17.9580   29.0220 N.3   175  LEU175     -0.1245
    103  CA        15.9900   17.5620   29.0040 C.3   175  LEU175      0.1561
    104  C         15.6800   16.4810   27.9100 C.2   175  LEU175      0.2260
    105  O         16.5480   16.1160   27.1300 O.2   175  LEU175     -0.2867
    106  CB        15.0530   18.7600   28.8820 C.3   175  LEU175      0.0270
    107  CG        15.1580   19.8090   29.9630 C.3   175  LEU175      0.0019
    108  CD1       14.4930   21.1310   29.5090 C.3   175  LEU175      0.0001
    109  CD2       14.5620   19.2750   31.3080 C.3   175  LEU175      0.0001
@<TRIPOS>BOND
     1   105   104    2
     2   104   103    1
     3    68    69    2
     4    68    67    1
     5    66    67    1
     6    67    70    1
     7   106   103    1
     8   106   107    1
     9   103   102    1
    10   108   107    1
    11   107   109    1
    12    70    71    1
    13    72    71   ar
    14    72    74   ar
    15    71    73   ar
    16    74    75   ar
    17    73    75   ar
    18    84    86   ar
    19    84    82   ar
    20    86    85   ar
    21    82    81   ar
    22    85    83   ar
    23    76    77    1
    24    81    83   ar
    25    81    80    1
    26    77    80    1
    27    77    78    1
    28    45    44    1
    29    45    46    1
    30    44    41    1
    31    78    79    2
    32    92    91    1
    33    41    42    1
    34    41    40    1
    35    46    40    1
    36    87    88    1
    37    43    42    2
    38    42    47   am
    39    54    52    1
    40    40    37   am
    41    52    51    1
    42   101    99   ar
    43    91    88    1
    44    88    89    1
    45    47    48    1
    46     6     5    1
    47    28    27    1
    48    37    38    2
    49    37    36    1
    50    99   100   ar
    51    99    98    1
    52    12    11    1
    53    51    48    1
    54    51    53    1
    55     2     5    1
    56     2     1    1
    57     2     3    1
    58    48    49    1
    59    11     8    1
    60    89    90    2
    61     7     8    1
    62    36    35    1
    63    36    39    1
    64    98    97    1
    65     8     9    1
    66    27    26    1
    67     3     4    2
    68    64    63    1
    69    49    50    2
    70    26    25    1
    71    97    94    1
    72    63    65    1
    73    63    62    2
    74     9    13   am
    75     9    10    2
    76    93    94    1
    77    34    33    1
    78    13    14    1
    79    94    95    1
    80    18    17    1
    81    24    25    1
    82    24    21    1
    83    62    61    1
    84    19    17    1
    85    20    21    1
    86    20    15   am
    87    33    30    1
    88    17    14    1
    89    14    15    1
    90    21    22    1
    91    95    96    2
    92    29    22   am
    93    29    30    1
    94    15    16    2
    95    61    60    1
    96    22    23    2
    97    60    59    1
    98    30    31    1
    99    55    56    1
   100    31    32    2
   101    56    59    1
   102    56    57    1
   103    57    58    2
