@<TRIPOS>MOLECULE
tmp/1xagA01.pdb
 118 109 0 0 0
SMALL
GASTEIGER

@<TRIPOS>ATOM
      1  N         28.5030   40.5420  -18.9760 N.3   130  ASP130     -0.1239
      2  CA        28.2960   41.2090  -17.7100 C.3   130  ASP130      0.1674
      3  C         28.5260   40.2410  -16.5380 C.2   130  ASP130      0.2266
      4  O         29.3190   40.5280  -15.6410 O.2   130  ASP130     -0.2867
      5  CB        26.8780   41.7970  -17.6830 C.3   130  ASP130      0.1410
      6  CG        26.4570   42.2730  -16.3070 C.2   130  ASP130      0.3668
      7  OD1       27.2620   42.9190  -15.6040 O.co2 130  ASP130     -0.2456
      8  OD2       25.2980   42.0140  -15.9350 O.co2 130  ASP130     -0.2456
      9  N         30.5630   38.0650   -8.6200 N.3   136  LYS136     -0.1245
     10  CA        29.2880   37.7080   -7.9920 C.3   136  LYS136      0.1561
     11  C         28.8250   36.3680   -8.5400 C.2   136  LYS136      0.2260
     12  O         28.7060   36.1960   -9.7480 O.2   136  LYS136     -0.2867
     13  CB        28.1980   38.7430   -8.2740 C.3   136  LYS136      0.0271
     14  CG        28.1690   39.9310   -7.3410 C.3   136  LYS136      0.0035
     15  CD        26.9020   40.7290   -7.6120 C.3   136  LYS136      0.0206
     16  CE        26.8040   41.9840   -6.7740 C.3   136  LYS136      0.1093
     17  NZ        25.5310   42.6970   -7.0670 N.3   136  LYS136     -0.1314
     18  N         19.0530   35.0290   -6.9000 N.3   146  ASN146     -0.1240
     19  CA        20.3790   35.1680   -6.2930 C.3   146  ASN146      0.1653
     20  C         20.4440   35.5280   -4.8100 C.2   146  ASN146      0.2266
     21  O         21.1330   36.4780   -4.4420 O.2   146  ASN146     -0.2867
     22  CB        21.1920   36.2170   -7.0710 C.3   146  ASN146      0.1155
     23  CG        21.1430   36.0060   -8.5800 C.2   146  ASN146      0.2627
     24  OD1       20.9570   34.8850   -9.0580 O.2   146  ASN146     -0.2716
     25  ND2       21.3300   37.0820   -9.3370 N.am  146  ASN146     -0.0877
     26  N         21.5810   43.8620  -21.0090 N.3   178  GLU178     -0.1245
     27  CA        22.7640   44.2510  -20.2420 C.3   178  GLU178      0.1567
     28  C         23.6240   45.2770  -20.9660 C.2   178  GLU178      0.2260
     29  O         24.0850   46.2490  -20.3590 O.2   178  GLU178     -0.2867
     30  CB        23.6250   43.0300  -19.8920 C.3   178  GLU178      0.0388
     31  CG        23.0280   42.1630  -18.8070 C.3   178  GLU178      0.1160
     32  CD        22.5970   42.9730  -17.6130 C.2   178  GLU178      0.3649
     33  OE1       21.4820   42.7430  -17.0990 O.co2 178  GLU178     -0.2457
     34  OE2       23.3670   43.8540  -17.1750 O.co2 178  GLU178     -0.2457
     35  N         21.8390   48.4550  -20.8710 N.3   181  LYS181     -0.1245
     36  CA        21.8780   48.9280  -19.4960 C.3   181  LYS181      0.1561
     37  C         23.1840   49.6520  -19.2210 C.2   181  LYS181      0.2260
     38  O         23.2020   50.6470  -18.5040 O.2   181  LYS181     -0.2867
     39  CB        21.7640   47.7710  -18.5140 C.3   181  LYS181      0.0271
     40  CG        21.7490   48.2360  -17.0640 C.3   181  LYS181      0.0035
     41  CD        22.1220   47.1230  -16.0980 C.3   181  LYS181      0.0206
     42  CE        23.5810   46.7210  -16.2470 C.3   181  LYS181      0.1093
     43  NZ        23.9400   45.6690  -15.2510 N.3   181  LYS181     -0.1314
     44  N         31.8430   48.0220  -16.6360 N.3   221  LYS221     -0.1245
     45  CA        31.7170   47.1930  -15.4470 C.3   221  LYS221      0.1561
     46  C         33.0450   47.0480  -14.7280 C.2   221  LYS221      0.2260
     47  O         33.1400   47.3410  -13.5400 O.2   221  LYS221     -0.2867
     48  CB        31.1600   45.8040  -15.7950 C.3   221  LYS221      0.0271
     49  CG        30.8940   44.9470  -14.5680 C.3   221  LYS221      0.0035
     50  CD        29.9420   43.7830  -14.8470 C.3   221  LYS221      0.0206
     51  CE        29.4990   43.1330  -13.5280 C.3   221  LYS221      0.1093
     52  NZ        28.5290   42.0080  -13.7030 N.3   221  LYS221     -0.1314
     53  N         28.6330   50.2280   -7.1990 N.3   235  ARG235     -0.1245
     54  CA        28.2940   48.9760   -7.8540 C.3   235  ARG235      0.1563
     55  C         26.7870   48.7410   -7.8230 C.2   235  ARG235      0.2260
     56  O         26.2510   47.9970   -8.6450 O.2   235  ARG235     -0.2867
     57  CB        29.0310   47.7960   -7.2150 C.3   235  ARG235      0.0307
     58  CG        28.7650   46.4910   -7.9390 C.3   235  ARG235      0.0489
     59  CD        29.7220   45.3870   -7.5500 C.3   235  ARG235      0.2205
     60  NE        29.4390   44.1920   -8.3390 N.pl3 235  ARG235     -0.0865
     61  CZ        30.2150   43.1180   -8.3860 C.cat 235  ARG235      0.5346
     62  NH1       31.3370   43.0700   -7.6840 N.pl3 235  ARG235      0.1354
     63  NH2       29.8820   42.0960   -9.1600 N.pl3 235  ARG235      0.1354
     64  N         24.7840   49.1190  -10.9570 N.3   238  LEU238     -0.1231
     65  CA        24.6980   48.0420  -11.9350 C.3   238  LEU238      0.1693
     66  C         23.3630   47.3130  -11.8460 C.2   238  LEU238      0.2592
     67  O         22.9520   46.6550  -12.8000 O.2   238  LEU238     -0.2718
     68  CB        25.8380   47.0400  -11.7490 C.3   238  LEU238      0.0284
     69  CG        27.2540   47.5170  -12.0490 C.3   238  LEU238      0.0019
     70  CD1       28.1850   46.3100  -12.0960 C.3   238  LEU238      0.0001
     71  CD2       27.2830   48.2490  -13.3780 C.3   238  LEU238      0.0001
     72  N         22.6900   47.4360  -10.7040 N.am  239  ASN239     -0.1974
     73  CA        21.3960   46.7860  -10.5040 C.3   239  ASN239      0.1688
     74  C         20.2490   47.5640  -11.1680 C.2   239  ASN239      0.2292
     75  O         19.0790   47.2780  -10.9240 O.2   239  ASN239     -0.2864
     76  CB        21.1000   46.6350   -9.0050 C.3   239  ASN239      0.1181
     77  CG        20.6680   45.2290   -8.6330 C.2   239  ASN239      0.2629
     78  OD1       19.8620   45.0370   -7.7220 O.2   239  ASN239     -0.2716
     79  ND2       21.2140   44.2360   -9.3270 N.am  239  ASN239     -0.0877
     80  N         16.7720   46.1990  -11.9620 N.3   242  HIS242     -0.1241
     81  CA        16.7670   44.8300  -11.4510 C.3   242  HIS242      0.1621
     82  C         15.8560   44.5840  -10.2690 C.2   242  HIS242      0.2264
     83  O         15.5760   43.4350   -9.9410 O.2   242  HIS242     -0.2867
     84  CB        18.1800   44.3880  -11.0950 C.3   242  HIS242      0.0745
     85  CG        19.0420   44.1420  -12.2890 C.ar  242  HIS242      0.0817
     86  ND1       19.2460   45.0960  -13.2630 N.ar  242  HIS242     -0.2268
     87  CD2       19.7350   43.0480  -12.6840 C.ar  242  HIS242      0.1154
     88  CE1       20.0260   44.6020  -14.2040 C.ar  242  HIS242      0.1986
     89  NE2       20.3370   43.3600  -13.8770 N.ar  242  HIS242     -0.2212
     90  N         14.1620   41.3820  -11.4170 N.3   246  HIS246     -0.1241
     91  CA        14.2720   40.1340  -10.6680 C.3   246  HIS246      0.1621
     92  C         12.9540   39.5980  -10.1470 C.2   246  HIS246      0.2264
     93  O         12.8050   38.3890   -9.9680 O.2   246  HIS246     -0.2867
     94  CB        15.2380   40.3050   -9.5000 C.3   246  HIS246      0.0745
     95  CG        16.6780   40.1920   -9.8890 C.ar  246  HIS246      0.0817
     96  ND1       17.7070   40.5620   -9.0520 N.ar  246  HIS246     -0.2268
     97  CD2       17.2600   39.7290  -11.0220 C.ar  246  HIS246      0.1154
     98  CE1       18.8630   40.3330   -9.6500 C.ar  246  HIS246      0.1986
     99  NE2       18.6180   39.8280  -10.8450 N.ar  246  HIS246     -0.2212
    100  N         16.1140   36.3860  -18.4070 N.3   256  HIS256     -0.1241
    101  CA        16.6720   37.4180  -17.5410 C.3   256  HIS256      0.1621
    102  C         16.7200   38.8240  -18.1330 C.2   256  HIS256      0.2264
    103  O         16.2540   39.7800  -17.5100 O.2   256  HIS256     -0.2867
    104  CB        18.0800   37.0590  -17.0990 C.3   256  HIS256      0.0745
    105  CG        18.6550   38.0470  -16.1330 C.ar  256  HIS256      0.0817
    106  ND1       17.9960   38.4250  -14.9850 N.ar  256  HIS256     -0.2268
    107  CD2       19.8230   38.7300  -16.1390 C.ar  256  HIS256      0.1154
    108  CE1       18.7340   39.2950  -14.3190 C.ar  256  HIS256      0.1986
    109  NE2       19.8460   39.4950  -14.9970 N.ar  256  HIS256     -0.2212
    110  N         18.1870   42.3350   -2.5320 N.3   314  LYS314     -0.1245
    111  CA        19.3810   42.5430   -1.7180 C.3   314  LYS314      0.1561
    112  C         19.8270   44.0060   -1.6160 C.2   314  LYS314      0.2260
    113  O         20.8790   44.3020   -1.0630 O.2   314  LYS314     -0.2867
    114  CB        20.5230   41.6950   -2.2790 C.3   314  LYS314      0.0271
    115  CG        20.1910   40.2120   -2.3670 C.3   314  LYS314      0.0035
    116  CD        21.3470   39.3810   -2.9220 C.3   314  LYS314      0.0206
    117  CE        21.5810   39.6340   -4.4010 C.3   314  LYS314      0.1093
    118  NZ        20.3820   39.3000   -5.2310 N.3   314  LYS314     -0.1314
@<TRIPOS>BOND
     1    26    27    1
     2    28    29    2
     3    28    27    1
     4    35    36    1
     5    27    30    1
     6    30    31    1
     7    36    37    1
     8    36    39    1
     9    37    38    2
    10     1     2    1
    11    31    32    1
    12    39    40    1
    13   100   101    1
    14   102   101    1
    15   102   103    2
    16     2     5    1
    17     2     3    1
    18     5     6    1
    19    32    34   ar
    20    32    33   ar
    21   101   104    1
    22   104   105    1
    23    40    41    1
    24    44    45    1
    25     3     4    2
    26     6     8   ar
    27     6     7   ar
    28    42    41    1
    29    42    43    1
    30   107   105   ar
    31   107   109   ar
    32   105   106   ar
    33    48    45    1
    34    48    49    1
    35    45    46    1
    36   109   108   ar
    37   106   108   ar
    38    50    49    1
    39    50    51    1
    40    46    47    2
    41    88    89   ar
    42    88    86   ar
    43    89    87   ar
    44    52    51    1
    45    71    69    1
    46    86    85   ar
    47    67    66    2
    48    87    85   ar
    49    85    84    1
    50    70    69    1
    51    69    68    1
    52    80    81    1
    53    65    66    1
    54    65    68    1
    55    65    64    1
    56    66    72   am
    57    81    84    1
    58    81    82    1
    59    90    91    1
    60    74    75    2
    61    74    73    1
    62    97    99   ar
    63    97    95   ar
    64    99    98   ar
    65    72    73    1
    66    91    92    1
    67    91    94    1
    68    73    76    1
    69    82    83    2
    70    92    93    2
    71    95    94    1
    72    95    96   ar
    73    12    11    2
    74    98    96   ar
    75    25    23   am
    76    79    77   am
    77    63    61    1
    78    24    23    2
    79    76    77    1
    80    56    55    2
    81    77    78    2
    82     9    10    1
    83    23    22    1
    84    11    10    1
    85    61    60    2
    86    61    62    1
    87    60    59    1
    88    13    10    1
    89    13    14    1
    90    58    59    1
    91    58    57    1
    92    54    55    1
    93    54    57    1
    94    54    53    1
    95    15    14    1
    96    15    16    1
    97    22    19    1
    98    17    16    1
    99    18    19    1
   100    19    20    1
   101   118   117    1
   102    20    21    2
   103   117   116    1
   104   116   115    1
   105   110   111    1
   106   115   114    1
   107   114   111    1
   108   111   112    1
   109   112   113    2
