@<TRIPOS>MOLECULE
tmp/1xapA00.pdb
 218 205 0 0 0
SMALL
GASTEIGER

@<TRIPOS>ATOM
      1  N         35.5480   26.4220  112.5250 N.3    18  PHE18      -0.1241
      2  CA        34.9920   25.6800  111.3960 C.3    18  PHE18       0.1605
      3  C         33.4700   25.8040  111.2420 C.2    18  PHE18       0.2264
      4  O         32.7080   25.1180  111.9230 O.2    18  PHE18      -0.2867
      5  CB        35.3870   24.2020  111.5130 C.3    18  PHE18       0.0534
      6  CG        34.8830   23.3430  110.3860 C.ar   18  PHE18      -0.0203
      7  CD1       33.6880   22.6440  110.5050 C.ar   18  PHE18      -0.0042
      8  CD2       35.5910   23.2570  109.1950 C.ar   18  PHE18      -0.0042
      9  CE1       33.2110   21.8720  109.4520 C.ar   18  PHE18      -0.0003
     10  CE2       35.1200   22.4880  108.1380 C.ar   18  PHE18      -0.0003
     11  CZ        33.9320   21.7980  108.2660 C.ar   18  PHE18      -0.0000
     12  N         41.1340   27.8640   90.5980 N.3    44  TRP44      -0.1241
     13  CA        42.3480   27.7040   91.3870 C.3    44  TRP44       0.1605
     14  C         42.5890   28.9570   92.2370 C.2    44  TRP44       0.2264
     15  O         42.9580   28.8550   93.4030 O.2    44  TRP44      -0.2867
     16  CB        43.5610   27.4580   90.4800 C.3    44  TRP44       0.0550
     17  CG        44.8830   27.6920   91.1800 C.ar   44  TRP44       0.0003
     18  CD1       45.7220   28.7660   91.0190 C.ar   44  TRP44       0.0946
     19  CD2       45.4650   26.8820   92.2080 C.ar   44  TRP44       0.0152
     20  NE1       46.7830   28.6720   91.8880 N.ar   44  TRP44      -0.2442
     21  CE2       46.6510   27.5250   92.6280 C.ar   44  TRP44       0.0810
     22  CE3       45.0990   25.6730   92.8180 C.ar   44  TRP44       0.0012
     23  CZ2       47.4710   27.0030   93.6310 C.ar   44  TRP44       0.0191
     24  CZ3       45.9150   25.1550   93.8170 C.ar   44  TRP44       0.0001
     25  CH2       47.0870   25.8200   94.2130 C.ar   44  TRP44       0.0015
     26  N         40.0440   28.7860   95.0730 N.3    47  PHE47      -0.1241
     27  CA        40.3570   27.6430   95.9200 C.3    47  PHE47       0.1605
     28  C         41.6040   27.8770   96.7690 C.2    47  PHE47       0.2264
     29  O         41.5690   27.6790   97.9830 O.2    47  PHE47      -0.2867
     30  CB        40.5530   26.3890   95.0590 C.3    47  PHE47       0.0534
     31  CG        41.2220   25.2530   95.7810 C.ar   47  PHE47      -0.0203
     32  CD1       40.6360   24.6780   96.9040 C.ar   47  PHE47      -0.0042
     33  CD2       42.4430   24.7610   95.3380 C.ar   47  PHE47      -0.0042
     34  CE1       41.2600   23.6280   97.5800 C.ar   47  PHE47      -0.0003
     35  CE2       43.0760   23.7120   96.0050 C.ar   47  PHE47      -0.0003
     36  CZ        42.4800   23.1450   97.1290 C.ar   47  PHE47      -0.0000
     37  N         40.9580   30.3300   99.5480 N.3    50  LEU50      -0.1231
     38  CA        40.2390   29.7250  100.6730 C.3    50  LEU50       0.1693
     39  C         41.1350   28.7530  101.4560 C.2    50  LEU50       0.2591
     40  O         40.9630   28.5690  102.6590 O.2    50  LEU50      -0.2718
     41  CB        38.9880   29.0010  100.1650 C.3    50  LEU50       0.0284
     42  CG        37.8380   29.8940   99.6820 C.3    50  LEU50       0.0019
     43  CD1       36.9610   29.1290   98.7060 C.3    50  LEU50       0.0001
     44  CD2       37.0170   30.3740  100.8780 C.3    50  LEU50       0.0001
     45  N         42.1020   28.1470  100.7720 N.am   51  ALA51      -0.1980
     46  CA        43.0220   27.2150  101.4210 C.3    51  ALA51       0.1597
     47  C         43.8710   27.9730  102.4430 C.2    51  ALA51       0.2287
     48  O         44.1270   27.4860  103.5420 O.2    51  ALA51      -0.2864
     49  CB        43.9250   26.5550  100.3820 C.3    51  ALA51       0.0319
     50  N         41.8320   28.7690  105.4720 N.3    54  CYS54      -0.1235
     51  CA        41.5820   27.6070  106.3150 C.3    54  CYS54       0.1677
     52  C         42.8320   27.1850  107.0740 C.2    54  CYS54       0.2270
     53  O         42.7500   26.7170  108.2050 O.2    54  CYS54      -0.2867
     54  CB        41.0380   26.4400  105.4910 C.3    54  CYS54       0.0956
     55  SG        40.3310   25.1520  106.5490 S.3    54  CYS54      -0.0801
     56  N         47.5860   19.3980  106.0380 N.3    85  LEU85      -0.1245
     57  CA        46.8450   18.8810  104.8860 C.3    85  LEU85       0.1561
     58  C         45.8040   17.8620  105.3400 C.2    85  LEU85       0.2260
     59  O         44.6720   17.8800  104.8630 O.2    85  LEU85      -0.2867
     60  CB        47.7770   18.2120  103.8680 C.3    85  LEU85       0.0270
     61  CG        47.7300   18.7220  102.4190 C.3    85  LEU85       0.0019
     62  CD1       48.3460   17.6740  101.5180 C.3    85  LEU85       0.0001
     63  CD2       46.2990   19.0270  101.9670 C.3    85  LEU85       0.0001
     64  N         42.9900   19.7840  106.6110 N.3    88  LEU88      -0.1231
     65  CA        42.3120   20.5270  105.5460 C.3    88  LEU88       0.1693
     66  C         41.4170   19.5550  104.7620 C.2    88  LEU88       0.2591
     67  O         40.2850   19.8810  104.4060 O.2    88  LEU88      -0.2718
     68  CB        43.3330   21.1590  104.5940 C.3    88  LEU88       0.0284
     69  CG        44.0460   22.4580  105.0050 C.3    88  LEU88       0.0019
     70  CD1       45.3040   22.6660  104.1380 C.3    88  LEU88       0.0001
     71  CD2       43.0870   23.6350  104.8590 C.3    88  LEU88       0.0001
     72  N         41.9420   18.3590  104.5010 N.am   89  ILE89      -0.1980
     73  CA        41.2070   17.3290  103.7680 C.3    89  ILE89       0.1595
     74  C         39.9740   16.8640  104.5390 C.2    89  ILE89       0.2287
     75  O         38.8890   16.7200  103.9710 O.2    89  ILE89      -0.2864
     76  CB        42.1170   16.1040  103.4800 C.3    89  ILE89       0.0276
     77  CG1       43.2310   16.5200  102.5050 C.3    89  ILE89       0.0022
     78  CG2       41.2750   14.9420  102.9190 C.3    89  ILE89       0.0022
     79  CD1       44.3280   15.4950  102.3070 C.3    89  ILE89       0.0001
     80  N         38.3710   18.5140  106.8500 N.3    91  ARG91      -0.1231
     81  CA        37.4250   19.6230  106.9110 C.3    91  ARG91       0.1694
     82  C         36.5320   19.7480  105.6770 C.2    91  ARG91       0.2591
     83  O         35.3080   19.8020  105.7980 O.2    91  ARG91      -0.2718
     84  CB        38.1790   20.9340  107.1610 C.3    91  ARG91       0.0321
     85  CG        38.7250   21.0140  108.5870 C.3    91  ARG91       0.0489
     86  CD        39.2680   22.3860  108.9620 C.3    91  ARG91       0.2205
     87  NE        39.3700   22.4860  110.4150 N.pl3  91  ARG91      -0.0865
     88  CZ        39.4100   23.6290  111.0880 C.cat  91  ARG91       0.5346
     89  NH1       39.3670   24.7800  110.4390 N.pl3  91  ARG91       0.1354
     90  NH2       39.4500   23.6220  112.4130 N.pl3  91  ARG91       0.1354
     91  N         37.1320   19.7810  104.4910 N.am   92  ILE92      -0.1980
     92  CA        36.3350   19.9200  103.2780 C.3    92  ILE92       0.1595
     93  C         35.4400   18.6890  103.0830 C.2    92  ILE92       0.2287
     94  O         34.3030   18.8130  102.6390 O.2    92  ILE92      -0.2864
     95  CB        37.2410   20.1690  102.0310 C.3    92  ILE92       0.0276
     96  CG1       36.3800   20.5940  100.8310 C.3    92  ILE92       0.0022
     97  CG2       38.0650   18.9320  101.7070 C.3    92  ILE92       0.0022
     98  CD1       35.7040   21.9560  101.0120 C.3    92  ILE92       0.0001
     99  N         31.9440   18.6660  104.6100 N.3    95  ARG95      -0.1245
    100  CA        30.9030   19.5180  104.0170 C.3    95  ARG95       0.1563
    101  C         30.4560   18.9340  102.6780 C.2    95  ARG95       0.2260
    102  O         30.1750   19.6600  101.7230 O.2    95  ARG95      -0.2867
    103  CB        31.4110   20.9460  103.7890 C.3    95  ARG95       0.0307
    104  CG        31.8290   21.6690  105.0480 C.3    95  ARG95       0.0489
    105  CD        31.2070   23.0480  105.1200 C.3    95  ARG95       0.2205
    106  NE        31.8690   23.8580  106.1350 N.pl3  95  ARG95      -0.0865
    107  CZ        33.0940   24.3550  106.0080 C.cat  95  ARG95       0.5346
    108  NH1       33.7950   24.1270  104.9000 N.pl3  95  ARG95       0.1354
    109  NH2       33.6260   25.0710  106.9910 N.pl3  95  ARG95       0.1354
    110  N         32.9490   25.0730  100.7650 N.3   105  PHE105     -0.1227
    111  CA        34.0480   25.7050  101.4780 C.3   105  PHE105      0.1736
    112  C         33.5170   26.6580  102.5680 C.2   105  PHE105      0.2596
    113  O         32.3130   26.9170  102.6450 O.2   105  PHE105     -0.2718
    114  CB        34.9570   26.4530  100.4900 C.3   105  PHE105      0.0547
    115  CG        35.6220   25.5480   99.4810 C.ar  105  PHE105     -0.0202
    116  CD1       34.9670   25.1860   98.3080 C.ar  105  PHE105     -0.0042
    117  CD2       36.8890   25.0290   99.7250 C.ar  105  PHE105     -0.0042
    118  CE1       35.5630   24.3140   97.3900 C.ar  105  PHE105     -0.0003
    119  CE2       37.5000   24.1510   98.8120 C.ar  105  PHE105     -0.0003
    120  CZ        36.8370   23.7960   97.6450 C.ar  105  PHE105     -0.0000
    121  N         34.4250   27.1740  103.3940 N.am  106  SER106     -0.1952
    122  CA        34.0710   28.0410  104.5180 C.3   106  SER106      0.1924
    123  C         33.2520   29.2940  104.2700 C.2   106  SER106      0.2314
    124  O         32.6450   29.8270  105.2050 O.2   106  SER106     -0.2863
    125  CB        35.3310   28.4330  105.2880 C.3   106  SER106      0.2116
    126  OG        35.7980   27.3340  106.0470 O.3   106  SER106     -0.2180
    127  N         41.8770   22.1990   91.1520 N.3   120  GLY120     -0.1210
    128  CA        43.2040   21.7810   91.5690 C.3   120  GLY120      0.1956
    129  C         43.3340   20.3640   92.1010 C.2   120  GLY120      0.2611
    130  O         44.4490   19.8380   92.1680 O.2   120  GLY120     -0.2717
    131  N         42.2280   19.7320   92.4900 N.am  121  PHE121     -0.1976
    132  CA        42.3130   18.3670   93.0130 C.3   121  PHE121      0.1639
    133  C         42.7790   17.3740   91.9470 C.2   121  PHE121      0.2290
    134  O         43.4310   16.3730   92.2560 O.2   121  PHE121     -0.2864
    135  CB        40.9720   17.9250   93.6080 C.3   121  PHE121      0.0560
    136  CG        40.6890   18.5180   94.9630 C.ar  121  PHE121     -0.0200
    137  CD1       40.1820   19.8070   95.0850 C.ar  121  PHE121     -0.0042
    138  CD2       40.9630   17.7960   96.1180 C.ar  121  PHE121     -0.0042
    139  CE1       39.9450   20.3660   96.3350 C.ar  121  PHE121     -0.0003
    140  CE2       40.7290   18.3470   97.3790 C.ar  121  PHE121     -0.0003
    141  CZ        40.2200   19.6400   97.4830 C.ar  121  PHE121     -0.0000
    142  N         43.3670   13.4940   92.0550 N.3   124  LEU124     -0.1245
    143  CA        43.0740   13.1090   93.4310 C.3   124  LEU124      0.1561
    144  C         41.5940   13.3090   93.7750 C.2   124  LEU124      0.2260
    145  O         41.1610   12.9770   94.8700 O.2   124  LEU124     -0.2867
    146  CB        43.9120   13.9400   94.3990 C.3   124  LEU124      0.0270
    147  CG        45.4380   13.8800   94.2560 C.3   124  LEU124      0.0019
    148  CD1       46.0760   14.7230   95.3810 C.3   124  LEU124      0.0001
    149  CD2       45.9100   12.4330   94.3180 C.3   124  LEU124      0.0001
    150  N         39.2940   11.7250   96.9050 N.3   128  VAL128     -0.1245
    151  CA        38.7980   12.5830   97.9810 C.3   128  VAL128      0.1561
    152  C         37.2970   12.4050   98.1930 C.2   128  VAL128      0.2260
    153  O         36.8350   12.3600   99.3370 O.2   128  VAL128     -0.2867
    154  CB        39.0880   14.0840   97.7120 C.3   128  VAL128      0.0252
    155  CG1       38.3840   14.9450   98.7570 C.3   128  VAL128      0.0019
    156  CG2       40.5980   14.3480   97.7620 C.3   128  VAL128      0.0019
    157  N         45.9990   10.0230  101.7420 N.3   203  ILE203     -0.1245
    158  CA        45.6300   11.0770  100.8100 C.3   203  ILE203      0.1561
    159  C         46.5880   12.2640  100.8930 C.2   203  ILE203      0.2260
    160  O         47.0770   12.7420   99.8760 O.2   203  ILE203     -0.2867
    161  CB        44.1920   11.5820  101.0710 C.3   203  ILE203      0.0252
    162  CG1       43.2110   10.4100  101.0010 C.3   203  ILE203      0.0019
    163  CG2       43.8180   12.6450  100.0400 C.3   203  ILE203      0.0019
    164  CD1       41.7760   10.7930  101.3110 C.3   203  ILE203      0.0001
    165  N         49.7810   14.6750   98.2780 N.3   207  GLY207     -0.1225
    166  CA        49.8400   16.1160   98.0720 C.3   207  GLY207      0.1811
    167  C         51.1900   16.6510   97.6240 C.2   207  GLY207      0.2280
    168  O         51.2640   17.6470   96.8990 O.2   207  GLY207     -0.2866
    169  N         51.3010   16.4890   93.9550 N.3   210  ARG210     -0.1231
    170  CA        50.2740   17.3870   93.4310 C.3   210  ARG210      0.1694
    171  C         50.7000   18.8580   93.4550 C.2   210  ARG210      0.2591
    172  O         50.4850   19.5720   92.4860 O.2   210  ARG210     -0.2718
    173  CB        48.9550   17.2200   94.1900 C.3   210  ARG210      0.0321
    174  CG        47.7940   17.9670   93.5310 C.3   210  ARG210      0.0489
    175  CD        47.6330   17.5300   92.0890 C.3   210  ARG210      0.2205
    176  NE        46.7320   18.4000   91.3410 N.pl3 210  ARG210     -0.0865
    177  CZ        46.7170   18.4780   90.0170 C.cat 210  ARG210      0.5346
    178  NH1       47.5580   17.7380   89.3090 N.pl3 210  ARG210      0.1354
    179  NH2       45.8630   19.2900   89.3980 N.pl3 210  ARG210      0.1354
    180  N         51.3030   19.3160   94.5470 N.am  211  VAL211     -0.1980
    181  CA        51.7260   20.7170   94.6080 C.3   211  VAL211      0.1595
    182  C         52.7830   21.0020   93.5450 C.2   211  VAL211      0.2287
    183  O         52.7550   22.0520   92.8990 O.2   211  VAL211     -0.2864
    184  CB        52.3190   21.0980   95.9780 C.3   211  VAL211      0.0276
    185  CG1       52.2600   22.6100   96.1630 C.3   211  VAL211      0.0022
    186  CG2       51.5720   20.4130   97.0740 C.3   211  VAL211      0.0022
    187  N         50.9990   21.3680   90.3180 N.3   214  LEU214     -0.1245
    188  CA        50.2940   22.6440   90.2370 C.3   214  LEU214      0.1561
    189  C         51.2770   23.7940   89.9790 C.2   214  LEU214      0.2260
    190  O         51.0250   24.6540   89.1380 O.2   214  LEU214     -0.2867
    191  CB        49.5110   22.8990   91.5290 C.3   214  LEU214      0.0270
    192  CG        48.3110   21.9710   91.7310 C.3   214  LEU214      0.0019
    193  CD1       47.7990   22.0940   93.1530 C.3   214  LEU214      0.0001
    194  CD2       47.2190   22.3190   90.7220 C.3   214  LEU214      0.0001
    195  N         50.5790   27.9290  101.6840 N.3   226  ILE226     -0.1245
    196  CA        50.4590   26.5920  101.1130 C.3   226  ILE226      0.1561
    197  C         51.8960   26.1290  100.9090 C.2   226  ILE226      0.2260
    198  O         52.2710   24.9980  101.2370 O.2   226  ILE226     -0.2867
    199  CB        49.7230   26.6170   99.7530 C.3   226  ILE226      0.0252
    200  CG1       48.2800   27.0940   99.9520 C.3   226  ILE226      0.0019
    201  CG2       49.7580   25.2360   99.1250 C.3   226  ILE226      0.0019
    202  CD1       47.4300   27.0660   98.6850 C.3   226  ILE226      0.0001
    203  N         53.3300   25.0690  104.0870 N.3   229  MET229     -0.1230
    204  CA        52.7340   23.8130  104.5140 C.3   229  MET229      0.1702
    205  C         53.3980   22.5800  103.9070 C.2   229  MET229      0.2592
    206  O         53.7410   21.6500  104.6230 O.2   229  MET229     -0.2718
    207  CB        51.2390   23.8010  104.1870 C.3   229  MET229      0.0401
    208  CG        50.5890   22.4380  104.3900 C.3   229  MET229      0.0596
    209  SD        48.7970   22.4680  104.2130 S.3   229  MET229     -0.1393
    210  CE        48.6470   22.7100  102.4270 C.3   229  MET229      0.0692
    211  N         53.5660   22.5670  102.5890 N.am  230  LEU230     -0.1980
    212  CA        54.1730   21.4200  101.9150 C.3   230  LEU230      0.1596
    213  C         55.6930   21.5900  101.7810 C.2   230  LEU230      0.2287
    214  O         56.3890   20.7150  101.2680 O.2   230  LEU230     -0.2864
    215  CB        53.5200   21.2140  100.5310 C.3   230  LEU230      0.0297
    216  CG        52.1940   20.4180  100.3460 C.3   230  LEU230      0.0022
    217  CD1       52.4710   18.9710   99.9610 C.3   230  LEU230      0.0001
    218  CD2       51.3870   20.4290  101.5760 C.3   230  LEU230      0.0001
@<TRIPOS>BOND
     1   190   189    2
     2   178   177    1
     3   179   177    1
     4   189   188    1
     5   177   176    2
     6   188   187    1
     7   188   191    1
     8    16    17    1
     9    16    13    1
    10    12    13    1
    11   194   192    1
    12    18    17   ar
    13    18    20   ar
    14   127   128    1
    15    17    19   ar
    16   176   175    1
    17    13    14    1
    18   191   192    1
    19   128   129    1
    20   192   193    1
    21    20    21   ar
    22   133   134    2
    23   133   132    1
    24   142   143    1
    25   175   174    1
    26   129   130    2
    27   129   131   am
    28    19    21   ar
    29    19    22   ar
    30    14    15    2
    31   172   171    2
    32   131   132    1
    33    21    23   ar
    34    22    24   ar
    35   183   182    2
    36   132   135    1
    37   170   171    1
    38   170   169    1
    39   170   173    1
    40   143   144    1
    41   143   146    1
    42   171   180   am
    43   174   173    1
    44   182   181    1
    45   135   136    1
    46    23    25   ar
    47   144   145    2
    48    24    25   ar
    49   147   149    1
    50   147   146    1
    51   147   148    1
    52   180   181    1
    53   181   184    1
    54   136   137   ar
    55   136   138   ar
    56    30    31    1
    57    30    27    1
    58    26    27    1
    59   137   139   ar
    60    33    31   ar
    61    33    35   ar
    62    31    32   ar
    63    27    28    1
    64   184   185    1
    65   184   186    1
    66    35    36   ar
    67   138   140   ar
    68   139   141   ar
    69    28    29    2
    70   168   167    2
    71    32    34   ar
    72   150   151    1
    73    36    34   ar
    74   140   141   ar
    75   118   120   ar
    76   118   116   ar
    77   167   166    1
    78   120   119   ar
    79   154   156    1
    80   154   151    1
    81   154   155    1
    82   151   152    1
    83   166   165    1
    84   152   153    2
    85   116   115   ar
    86   202   200    1
    87    43    42    1
    88   119   117   ar
    89   201   199    1
    90   115   117   ar
    91   115   114    1
    92    37    38    1
    93    42    41    1
    94    42    44    1
    95   199   200    1
    96   199   196    1
    97   160   159    2
    98   217   216    1
    99   163   161    1
   100    41    38    1
   101   216   215    1
   102   216   218    1
   103    49    46    1
   104   114   111    1
   105   215   212    1
   106    38    39    1
   107   110   111    1
   108    45    46    1
   109    45    39   am
   110   158   159    1
   111   158   161    1
   112   158   157    1
   113    96    98    1
   114    96    95    1
   115   197   196    1
   116   197   198    2
   117   162   161    1
   118   162   164    1
   119   196   195    1
   120   214   213    2
   121    46    47    1
   122    39    40    2
   123   111   112    1
   124    62    61    1
   125    97    95    1
   126   102   101    2
   127   213   212    1
   128   212   211    1
   129    63    61    1
   130    95    92    1
   131    79    77    1
   132    61    60    1
   133   210   209    1
   134    47    48    2
   135    77    76    1
   136   112   113    2
   137   112   121   am
   138   211   205   am
   139    94    93    2
   140   101   100    1
   141    78    76    1
   142    93    92    1
   143    92    91    1
   144   121   122    1
   145    76    73    1
   146    73    72    1
   147    73    74    1
   148   103   100    1
   149   103   104    1
   150    60    57    1
   151   205   204    1
   152   205   206    2
   153    75    74    2
   154   100    99    1
   155   203   204    1
   156    70    69    1
   157   207   208    1
   158   207   204    1
   159   209   208    1
   160   123   122    1
   161   123   124    2
   162    67    66    2
   163    91    82   am
   164    72    66   am
   165   122   125    1
   166    68    69    1
   167    68    65    1
   168    66    65    1
   169    71    69    1
   170    59    58    2
   171    57    58    1
   172    57    56    1
   173   108   107    1
   174   104   105    1
   175   105   106    1
   176   125   126    1
   177    50    51    1
   178    54    51    1
   179    54    55    1
   180    65    64    1
   181    82    83    2
   182    82    81    1
   183   107   106    2
   184   107   109    1
   185    51    52    1
   186    80    81    1
   187    81    84    1
   188    52    53    2
   189    84    85    1
   190    10    11   ar
   191    10     8   ar
   192    11     9   ar
   193    85    86    1
   194    86    87    1
   195     8     6   ar
   196     9     7   ar
   197     6     7   ar
   198     6     5    1
   199    87    88    2
   200    89    88    1
   201    88    90    1
   202     3     2    1
   203     3     4    2
   204     2     5    1
   205     2     1    1
