@<TRIPOS>MOLECULE
tmp/1xb0I00.pdb
 134 133 0 0 0
SMALL
GASTEIGER

@<TRIPOS>ATOM
      1  N        125.9400   93.8930   12.9250 N.3    38  ILE38      -0.1245
      2  CA       125.6170   92.4990   13.2060 C.3    38  ILE38       0.1561
      3  C        126.6620   91.8070   14.0870 C.2    38  ILE38       0.2260
      4  O        126.5810   90.6040   14.3340 O.2    38  ILE38      -0.2867
      5  CB       125.4000   91.6940   11.8920 C.3    38  ILE38       0.0252
      6  CG1      126.6710   91.6790   11.0460 C.3    38  ILE38       0.0019
      7  CG2      124.2570   92.3210   11.0850 C.3    38  ILE38       0.0019
      8  CD1      126.5480   90.7990    9.8130 C.3    38  ILE38       0.0001
      9  N        130.3520   94.9280    9.4670 N.3    43  LYS43      -0.1231
     10  CA       129.1600   94.4960    8.7460 C.3    43  LYS43       0.1693
     11  C        127.8810   95.0630    9.3660 C.2    43  LYS43       0.2592
     12  O        127.6900   94.9860   10.5750 O.2    43  LYS43      -0.2718
     13  CB       129.0740   92.9720    8.7300 C.3    43  LYS43       0.0285
     14  CG       130.1990   92.2910    7.9650 C.3    43  LYS43       0.0035
     15  CD       130.0530   90.7820    8.0360 C.3    43  LYS43       0.0206
     16  CE       131.1250   90.0810    7.2230 C.3    43  LYS43       0.1093
     17  NZ       132.5000   90.5000    7.6270 N.3    43  LYS43      -0.1314
     18  N        127.0180   95.6270    8.5230 N.am   44  VAL44      -0.1966
     19  CA       125.7450   96.1980    8.9560 C.3    44  VAL44       0.1727
     20  C        124.6310   95.7520    8.0140 C.2    44  VAL44       0.2616
     21  O        124.8930   95.3600    6.8790 O.2    44  VAL44      -0.2715
     22  CB       125.7670   97.7470    8.9580 C.3    44  VAL44       0.0290
     23  CG1      126.8950   98.2590    9.8500 C.3    44  VAL44       0.0023
     24  CG2      125.9040   98.2760    7.5310 C.3    44  VAL44       0.0023
     25  N        123.3920   95.8150    8.4940 N.am   45  GLN45      -0.1977
     26  CA       122.2320   95.4280    7.6940 C.3    45  GLN45       0.1601
     27  C        121.1100   96.4250    7.9170 C.2    45  GLN45       0.2287
     28  O        120.9610   96.9580    9.0170 O.2    45  GLN45      -0.2864
     29  CB       121.7260   94.0360    8.0920 C.3    45  GLN45       0.0394
     30  CG       122.5860   92.8810    7.6270 C.3    45  GLN45       0.0908
     31  CD       121.9740   91.5380    7.9790 C.2    45  GLN45       0.2608
     32  OE1      120.8330   91.2500    7.6120 O.2    45  GLN45      -0.2717
     33  NE2      122.7260   90.7110    8.6930 N.am   45  GLN45      -0.0878
     34  N        122.6820   94.1630    3.2710 N.3    52  GLY52      -0.1210
     35  CA       123.9080   94.2520    4.0460 C.3    52  GLY52       0.1956
     36  C        125.0210   95.0070    3.3470 C.2    52  GLY52       0.2612
     37  O        125.1350   94.9710    2.1180 O.2    52  GLY52      -0.2717
     38  N        125.8450   95.6920    4.1340 N.am   53  LEU53      -0.1965
     39  CA       126.9660   96.4750    3.6140 C.3    53  LEU53       0.1728
     40  C        128.2080   96.2790    4.4890 C.2    53  LEU53       0.2616
     41  O        128.1080   96.1980    5.7170 O.2    53  LEU53      -0.2715
     42  CB       126.5840   97.9620    3.5840 C.3    53  LEU53       0.0311
     43  CG       126.3710   98.6990    2.2530 C.3    53  LEU53       0.0022
     44  CD1      125.8670   97.7650    1.1660 C.3    53  LEU53       0.0001
     45  CD2      125.4090   99.8510    2.4900 C.3    53  LEU53       0.0001
     46  N        129.3760   96.2140    3.8550 N.am   54  ALA54      -0.1963
     47  CA       130.6380   96.0320    4.5680 C.3    54  ALA54       0.1728
     48  C        131.7970   96.7250    3.8590 C.2    54  ALA54       0.2616
     49  O        131.6730   97.1530    2.7110 O.2    54  ALA54      -0.2715
     50  CB       130.9470   94.5400    4.7260 C.3    54  ALA54       0.0334
     51  N        132.9280   96.8160    4.5530 N.am   55  ASN55      -0.1958
     52  CA       134.1260   97.4550    4.0110 C.3    55  ASN55       0.1819
     53  C        133.9010   98.9460    3.7960 C.2    55  ASN55       0.2621
     54  O        134.1990   99.4910    2.7330 O.2    55  ASN55      -0.2715
     55  CB       134.5400   96.7770    2.6980 C.3    55  ASN55       0.1195
     56  CG       134.8320   95.2990    2.8790 C.2    55  ASN55       0.2630
     57  OD1      134.7410   94.5180    1.9360 O.2    55  ASN55      -0.2716
     58  ND2      135.1900   94.9080    4.0940 N.am   55  ASN55      -0.0877
     59  N        133.3810   99.5920    4.8360 N.am   56  TRP56      -0.1960
     60  CA       133.1160  101.0230    4.8210 C.3    56  TRP56       0.1771
     61  C        134.4260  101.7930    4.7310 C.2    56  TRP56       0.2619
     62  O        135.4160  101.4290    5.3740 O.2    56  TRP56      -0.2715
     63  CB       132.3670  101.4390    6.1000 C.3    56  TRP56       0.0590
     64  CG       130.9400  100.9580    6.1380 C.ar   56  TRP56       0.0006
     65  CD1      130.4740   99.7760    6.6470 C.ar   56  TRP56       0.0946
     66  CD2      129.8090  101.6210    5.5680 C.ar   56  TRP56       0.0152
     67  NE1      129.1170   99.6630    6.4200 N.ar   56  TRP56      -0.2442
     68  CE2      128.6870  100.7820    5.7590 C.ar   56  TRP56       0.0810
     69  CE3      129.6360  102.8450    4.9090 C.ar   56  TRP56       0.0012
     70  CZ2      127.4060  101.1290    5.3130 C.ar   56  TRP56       0.0191
     71  CZ3      128.3610  103.1890    4.4670 C.ar   56  TRP56       0.0001
     72  CH2      127.2660  102.3330    4.6720 C.ar   56  TRP56       0.0015
     73  N        134.4220  102.8630    3.9430 N.am   57  LYS57      -0.1977
     74  CA       135.6040  103.6930    3.7680 C.3    57  LYS57       0.1596
     75  C        135.3360  105.0900    4.3100 C.2    57  LYS57       0.2287
     76  O        134.1990  105.5580    4.3060 O.2    57  LYS57      -0.2864
     77  CB       135.9860  103.7800    2.2840 C.3    57  LYS57       0.0298
     78  CG       136.2680  102.4300    1.6320 C.3    57  LYS57       0.0038
     79  CD       137.2980  101.6360    2.4310 C.3    57  LYS57       0.0206
     80  CE       137.5130  100.2520    1.8320 C.3    57  LYS57       0.1093
     81  NZ       138.3920   99.4200    2.6930 N.3    57  LYS57      -0.1314
     82  N        132.4580  108.1820    3.6650 N.3    60  GLU60      -0.1245
     83  CA       131.2680  107.6530    3.0060 C.3    60  GLU60       0.1567
     84  C        129.9960  108.0820    3.7340 C.2    60  GLU60       0.2260
     85  O        129.9670  108.1810    4.9610 O.2    60  GLU60      -0.2867
     86  CB       131.3150  106.1250    2.9110 C.3    60  GLU60       0.0388
     87  CG       132.2940  105.6080    1.8710 C.3    60  GLU60       0.1160
     88  CD       131.9880  104.1880    1.4360 C.2    60  GLU60       0.3649
     89  OE1      132.0020  103.2770    2.2870 O.co2  60  GLU60      -0.2457
     90  OE2      131.7280  103.9860    0.2330 O.co2  60  GLU60      -0.2457
     91  N        125.1800  105.3970    0.2910 N.3    65  GLN65      -0.1245
     92  CA       125.5100  104.0010    0.0320 C.3    65  GLN65       0.1566
     93  C        124.2430  103.1520    0.0520 C.2    65  GLN65       0.2260
     94  O        124.1100  102.1860   -0.7010 O.2    65  GLN65      -0.2867
     95  CB       126.5090  103.4960    1.0740 C.3    65  GLN65       0.0367
     96  CG       127.9130  104.0640    0.8820 C.3    65  GLN65       0.0905
     97  CD       128.5660  103.5340   -0.3810 C.2    65  GLN65       0.2608
     98  OE1      128.8650  102.3510   -0.4790 O.2    65  GLN65      -0.2717
     99  NE2      128.7730  104.4050   -1.3560 N.am   65  GLN65      -0.0878
    100  N        122.5770  103.8380   -3.2520 N.3    68  LYS68      -0.1231
    101  CA       123.3380  103.2990   -4.3760 C.3    68  LYS68       0.1693
    102  C        123.1510  101.7990   -4.5430 C.2    68  LYS68       0.2592
    103  O        122.8190  101.3200   -5.6310 O.2    68  LYS68      -0.2718
    104  CB       124.8390  103.5860   -4.2100 C.3    68  LYS68       0.0285
    105  CG       125.7100  102.8890   -5.2580 C.3    68  LYS68       0.0035
    106  CD       127.2010  103.1220   -5.0330 C.3    68  LYS68       0.0206
    107  CE       128.0350  102.3500   -6.0620 C.3    68  LYS68       0.1093
    108  NZ       129.5130  102.5070   -5.8390 N.3    68  LYS68      -0.1314
    109  N        123.3630  101.0680   -3.4530 N.am   69  TRP69      -0.1962
    110  CA       123.2710   99.6150   -3.4660 C.3    69  TRP69       0.1771
    111  C        121.8790   99.0150   -3.3550 C.2    69  TRP69       0.2619
    112  O        121.6050   97.9850   -3.9730 O.2    69  TRP69      -0.2715
    113  CB       124.1550   99.0340   -2.3560 C.3    69  TRP69       0.0590
    114  CG       125.6010   99.3830   -2.5100 C.ar   69  TRP69       0.0006
    115  CD1      126.3360  100.2270   -1.7210 C.ar   69  TRP69       0.0946
    116  CD2      126.4900   98.9130   -3.5310 C.ar   69  TRP69       0.0152
    117  NE1      127.6290  100.3060   -2.1860 N.ar   69  TRP69      -0.2442
    118  CE2      127.7500   99.5100   -3.2970 C.ar   69  TRP69       0.0810
    119  CE3      126.3450   98.0450   -4.6210 C.ar   69  TRP69       0.0012
    120  CZ2      128.8620   99.2640   -4.1160 C.ar   69  TRP69       0.0191
    121  CZ3      127.4500   97.7980   -5.4340 C.ar   69  TRP69       0.0001
    122  CH2      128.6930   98.4080   -5.1760 C.ar   69  TRP69       0.0015
    123  N        121.0060   99.6450   -2.5720 N.am   70  TYR70      -0.1974
    124  CA       119.6600   99.1180   -2.3870 C.3    70  TYR70       0.1639
    125  C        118.5690  100.1430   -2.6790 C.2    70  TYR70       0.2290
    126  O        117.7890  100.5070   -1.7950 O.2    70  TYR70      -0.2864
    127  CB       119.5180   98.5800   -0.9620 C.3    70  TYR70       0.0560
    128  CG       120.5460   97.5240   -0.6340 C.ar   70  TYR70      -0.0198
    129  CD1      121.6130   97.7950    0.2300 C.ar   70  TYR70      -0.0009
    130  CD2      120.4750   96.2590   -1.2170 C.ar   70  TYR70      -0.0009
    131  CE1      122.5840   96.8250    0.5030 C.ar   70  TYR70       0.0417
    132  CE2      121.4370   95.2840   -0.9530 C.ar   70  TYR70       0.0417
    133  CZ       122.4880   95.5700   -0.0960 C.ar   70  TYR70       0.1957
    134  OH       123.4430   94.6040    0.1460 O.3    70  TYR70      -0.2866
@<TRIPOS>BOND
     1   107   108    1
     2   107   106    1
     3   103   102    2
     4   121   122   ar
     5   121   119   ar
     6   105   106    1
     7   105   104    1
     8   122   120   ar
     9   119   116   ar
    10   102   101    1
    11   102   109   am
    12   101   104    1
    13   101   100    1
    14   120   118   ar
    15   112   111    2
    16   116   118   ar
    17   116   114   ar
    18   110   109    1
    19   110   111    1
    20   110   113    1
    21   111   123   am
    22   118   117   ar
    23   125   124    1
    24   125   126    2
    25   123   124    1
    26   114   113    1
    27   114   115   ar
    28   124   127    1
    29   117   115   ar
    30    99    97   am
    31   130   132   ar
    32   130   128   ar
    33   127   128    1
    34   132   133   ar
    35    94    93    2
    36   128   129   ar
    37    98    97    2
    38    97    96    1
    39   133   134    1
    40   133   131   ar
    41    92    93    1
    42    92    91    1
    43    92    95    1
    44   129   131   ar
    45    90    88   ar
    46    96    95    1
    47    44    43    1
    48    88    87    1
    49    88    89   ar
    50    78    77    1
    51    78    79    1
    52    80    79    1
    53    80    81    1
    54    87    86    1
    55    57    56    2
    56    37    36    2
    57    43    45    1
    58    43    42    1
    59    77    74    1
    60    55    56    1
    61    55    52    1
    62    49    48    2
    63    54    53    2
    64    56    58   am
    65    86    83    1
    66    83    82    1
    67    83    84    1
    68    34    35    1
    69    36    35    1
    70    36    38   am
    71    42    39    1
    72    39    38    1
    73    39    40    1
    74    84    85    2
    75    74    73    1
    76    74    75    1
    77    53    52    1
    78    53    59   am
    79    46    40   am
    80    46    47    1
    81    48    51   am
    82    48    47    1
    83    73    61   am
    84    52    51    1
    85    76    75    2
    86    71    72   ar
    87    71    69   ar
    88    40    41    2
    89    47    50    1
    90    72    70   ar
    91    61    60    1
    92    61    62    2
    93    60    59    1
    94    60    63    1
    95    69    66   ar
    96    70    68   ar
    97    66    68   ar
    98    66    64   ar
    99    68    67   ar
   100    63    64    1
   101    64    65   ar
   102    67    65   ar
   103    21    20    2
   104    16    17    1
   105    16    15    1
   106    24    22    1
   107    32    31    2
   108    30    31    1
   109    30    29    1
   110    26    27    1
   111    26    29    1
   112    26    25    1
   113    27    28    2
   114    14    15    1
   115    14    13    1
   116    31    33   am
   117    20    25   am
   118    20    19    1
   119    18    19    1
   120    18    11   am
   121    13    10    1
   122    10    11    1
   123    10     9    1
   124    19    22    1
   125    22    23    1
   126    11    12    2
   127     8     6    1
   128     6     5    1
   129     7     5    1
   130     5     2    1
   131     1     2    1
   132     2     3    1
   133     3     4    2
