@<TRIPOS>MOLECULE
tmp/1xb1G00.pdb
 118 116 0 0 0
SMALL
GASTEIGER

@<TRIPOS>ATOM
      1  N        -13.4590   46.4490   67.0690 N.3    38  ILE38      -0.1245
      2  CA       -12.5990   46.3250   68.2370 C.3    38  ILE38       0.1561
      3  C        -12.3600   44.8400   68.4990 C.2    38  ILE38       0.2260
      4  O        -11.3850   44.4520   69.1560 O.2    38  ILE38      -0.2867
      5  CB       -13.2930   46.9440   69.4750 C.3    38  ILE38       0.0252
      6  CG1      -13.3610   48.4640   69.3280 C.3    38  ILE38       0.0019
      7  CG2      -12.5660   46.5650   70.7430 C.3    38  ILE38       0.0019
      8  CD1      -14.2080   49.1460   70.3990 C.3    38  ILE38       0.0001
      9  N        -18.9200   46.3000   68.8850 N.3    43  LYS43      -0.1245
     10  CA       -18.1870   47.5240   69.1510 C.3    43  LYS43       0.1561
     11  C        -17.1840   47.9260   68.0770 C.2    43  LYS43       0.2260
     12  O        -16.2020   47.2140   67.8440 O.2    43  LYS43      -0.2867
     13  CB       -17.4480   47.4090   70.4770 C.3    43  LYS43       0.0271
     14  CG       -18.3500   47.1240   71.6410 C.3    43  LYS43       0.0035
     15  CD       -17.6140   47.2810   72.9620 C.3    43  LYS43       0.0206
     16  CE       -18.5350   46.9360   74.1340 C.3    43  LYS43       0.1093
     17  NZ       -17.9180   47.2760   75.4490 N.3    43  LYS43      -0.1314
     18  N        -14.8290   51.3160   66.3010 N.3    45  GLN45      -0.1245
     19  CA       -14.0930   52.5000   66.7380 C.3    45  GLN45       0.1566
     20  C        -13.4940   53.2570   65.5390 C.2    45  GLN45       0.2260
     21  O        -12.9400   52.6350   64.6210 O.2    45  GLN45      -0.2867
     22  CB       -12.9940   52.0110   67.6680 C.3    45  GLN45       0.0367
     23  CG       -12.3340   53.0150   68.5460 C.3    45  GLN45       0.0905
     24  CD       -11.5060   52.3200   69.6190 C.2    45  GLN45       0.2608
     25  OE1      -10.5850   51.5620   69.3100 O.2    45  GLN45      -0.2717
     26  NE2      -11.8420   52.5630   70.8850 N.am   45  GLN45      -0.0878
     27  N        -15.7610   55.5830   70.0130 N.3    52  GLY52      -0.1210
     28  CA       -16.3660   54.2650   69.8540 C.3    52  GLY52       0.1956
     29  C        -17.8860   54.2540   69.8920 C.2    52  GLY52       0.2612
     30  O        -18.5140   55.1240   70.4950 O.2    52  GLY52      -0.2717
     31  N        -18.4850   53.2690   69.2340 N.am   53  LEU53      -0.1965
     32  CA       -19.9450   53.1330   69.1990 C.3    53  LEU53       0.1728
     33  C        -20.3400   51.6730   69.4050 C.2    53  LEU53       0.2616
     34  O        -19.6750   50.7630   68.8950 O.2    53  LEU53      -0.2715
     35  CB       -20.5090   53.6220   67.8560 C.3    53  LEU53       0.0311
     36  CG       -21.1170   55.0350   67.7290 C.3    53  LEU53       0.0022
     37  CD1      -21.0940   55.7650   69.0700 C.3    53  LEU53       0.0001
     38  CD2      -20.3680   55.8210   66.6530 C.3    53  LEU53       0.0001
     39  N        -21.4270   51.4430   70.1390 N.am   54  ALA54      -0.1963
     40  CA       -21.8690   50.0810   70.3940 C.3    54  ALA54       0.1728
     41  C        -23.3740   49.9590   70.3550 C.2    54  ALA54       0.2616
     42  O        -24.0740   50.9600   70.4040 O.2    54  ALA54      -0.2715
     43  CB       -21.3490   49.6170   71.7380 C.3    54  ALA54       0.0334
     44  N        -23.8630   48.7210   70.2650 N.am   55  ASN55      -0.1958
     45  CA       -25.2960   48.4450   70.2300 C.3    55  ASN55       0.1819
     46  C        -25.9580   49.0920   69.0280 C.2    55  ASN55       0.2621
     47  O        -26.8810   49.8860   69.1800 O.2    55  ASN55      -0.2715
     48  CB       -25.9620   48.9620   71.5010 C.3    55  ASN55       0.1195
     49  CG       -25.3790   48.3430   72.7600 C.2    55  ASN55       0.2630
     50  OD1      -25.5270   48.8910   73.8560 O.2    55  ASN55      -0.2716
     51  ND2      -24.7210   47.1900   72.6110 N.am   55  ASN55      -0.0877
     52  N        -25.4830   48.7490   67.8360 N.am   56  TRP56      -0.1960
     53  CA       -26.0350   49.3000   66.6080 C.3    56  TRP56       0.1771
     54  C        -27.3780   48.6770   66.2500 C.2    56  TRP56       0.2619
     55  O        -27.5040   47.4600   66.1450 O.2    56  TRP56      -0.2715
     56  CB       -25.0660   49.0940   65.4440 C.3    56  TRP56       0.0590
     57  CG       -23.7630   49.8120   65.5950 C.ar   56  TRP56       0.0006
     58  CD1      -22.7030   49.4290   66.3520 C.ar   56  TRP56       0.0946
     59  CD2      -23.3720   51.0240   64.9400 C.ar   56  TRP56       0.0152
     60  NE1      -21.6710   50.3200   66.2070 N.ar   56  TRP56      -0.2442
     61  CE2      -22.0560   51.3100   65.3440 C.ar   56  TRP56       0.0810
     62  CE3      -24.0060   51.8910   64.0460 C.ar   56  TRP56       0.0012
     63  CZ2      -21.3550   52.4320   64.8830 C.ar   56  TRP56       0.0191
     64  CZ3      -23.3090   53.0030   63.5860 C.ar   56  TRP56       0.0001
     65  CH2      -21.9980   53.2620   64.0060 C.ar   56  TRP56       0.0015
     66  N        -28.3790   49.5270   66.0530 N.am   57  LYS57      -0.1977
     67  CA       -29.7110   49.0680   65.6970 C.3    57  LYS57       0.1596
     68  C        -29.7820   48.9240   64.1830 C.2    57  LYS57       0.2287
     69  O        -29.0460   49.5780   63.4560 O.2    57  LYS57      -0.2864
     70  CB       -30.7480   50.0770   66.1730 C.3    57  LYS57       0.0298
     71  CG       -30.5980   50.4850   67.6350 C.3    57  LYS57       0.0038
     72  CD       -31.5130   51.6660   67.9610 C.3    57  LYS57       0.0206
     73  CE       -31.2690   52.2070   69.3620 C.3    57  LYS57       0.1093
     74  NZ       -32.1460   53.3760   69.6610 N.3    57  LYS57      -0.1314
     75  N        -29.4030   51.6290   60.9410 N.3    60  GLU60      -0.1245
     76  CA       -28.7260   52.8340   61.4130 C.3    60  GLU60       0.1567
     77  C        -27.6370   53.2270   60.4300 C.2    60  GLU60       0.2260
     78  O        -27.0210   52.3670   59.7990 O.2    60  GLU60      -0.2867
     79  CB       -28.0930   52.6230   62.7870 C.3    60  GLU60       0.0388
     80  CG       -29.0710   52.6290   63.9340 C.3    60  GLU60       0.1160
     81  CD       -28.3940   52.8930   65.2650 C.2    60  GLU60       0.3649
     82  OE1      -27.5350   52.0850   65.6850 O.co2  60  GLU60      -0.2457
     83  OE2      -28.7240   53.9200   65.8920 O.co2  60  GLU60      -0.2457
     84  N        -24.5720   58.4190   62.8050 N.3    65  GLN65      -0.1245
     85  CA       -24.2020   58.1090   64.1790 C.3    65  GLN65       0.1566
     86  C        -22.8350   58.7250   64.4820 C.2    65  GLN65       0.2260
     87  O        -22.5630   59.1400   65.6100 O.2    65  GLN65      -0.2867
     88  CB       -24.1490   56.5880   64.3950 C.3    65  GLN65       0.0367
     89  CG       -25.5110   55.9150   64.4590 C.3    65  GLN65       0.0905
     90  CD       -26.3560   56.4210   65.6200 C.2    65  GLN65       0.2608
     91  OE1      -26.1830   56.0050   66.7790 O.2    65  GLN65      -0.2717
     92  NE2      -27.2730   57.3340   65.3150 N.am   65  GLN65      -0.0878
     93  N        -22.6160   61.6670   67.5470 N.3    69  TRP69      -0.1227
     94  CA       -21.8600   61.4930   68.7900 C.3    69  TRP69       0.1737
     95  C        -20.4930   62.1580   68.8950 C.2    69  TRP69       0.2595
     96  O        -20.1030   62.5910   69.9740 O.2    69  TRP69      -0.2718
     97  CB       -21.6830   60.0080   69.0760 C.3    69  TRP69       0.0564
     98  CG       -22.9590   59.2970   69.2490 C.ar   69  TRP69       0.0003
     99  CD1      -23.5050   58.3680   68.4090 C.ar   69  TRP69       0.0946
    100  CD2      -23.8420   59.4000   70.3670 C.ar   69  TRP69       0.0152
    101  NE1      -24.6730   57.8780   68.9420 N.ar   69  TRP69      -0.2442
    102  CE2      -24.9040   58.4900   70.1450 C.ar   69  TRP69       0.0810
    103  CE3      -23.8370   60.1670   71.5390 C.ar   69  TRP69       0.0012
    104  CZ2      -25.9470   58.3200   71.0510 C.ar   69  TRP69       0.0191
    105  CZ3      -24.8740   60.0010   72.4430 C.ar   69  TRP69       0.0001
    106  CH2      -25.9180   59.0790   72.1950 C.ar   69  TRP69       0.0015
    107  N        -19.7670   62.2190   67.7800 N.am   70  TYR70      -0.1976
    108  CA       -18.4250   62.7950   67.7600 C.3    70  TYR70       0.1639
    109  C        -18.3050   63.9130   66.7230 C.2    70  TYR70       0.2290
    110  O        -17.4230   63.8900   65.8590 O.2    70  TYR70      -0.2864
    111  CB       -17.4060   61.6770   67.4700 C.3    70  TYR70       0.0560
    112  CG       -17.4860   60.5280   68.4530 C.ar   70  TYR70      -0.0198
    113  CD1      -17.8900   59.2530   68.0460 C.ar   70  TYR70      -0.0009
    114  CD2      -17.2070   60.7270   69.8090 C.ar   70  TYR70      -0.0009
    115  CE1      -18.0180   58.2030   68.9670 C.ar   70  TYR70       0.0417
    116  CE2      -17.3330   59.6940   70.7360 C.ar   70  TYR70       0.0417
    117  CZ       -17.7400   58.4390   70.3110 C.ar   70  TYR70       0.1957
    118  OH       -17.8790   57.4390   71.2390 O.3    70  TYR70      -0.2866
@<TRIPOS>BOND
     1    78    77    2
     2    77    76    1
     3    75    76    1
     4    76    79    1
     5    79    80    1
     6    84    85    1
     7    69    68    2
     8    64    65   ar
     9    64    62   ar
    10    80    81    1
    11    65    63   ar
    12    62    59   ar
    13    85    88    1
    14    85    86    1
    15    68    67    1
    16    88    89    1
    17    89    90    1
    18    86    87    2
    19    21    20    2
    20    63    61   ar
    21    59    61   ar
    22    59    57   ar
    23    81    82   ar
    24    81    83   ar
    25    92    90   am
    26    61    60   ar
    27    56    57    1
    28    56    53    1
    29    20    19    1
    30    57    58   ar
    31    90    91    2
    32    67    66    1
    33    67    70    1
    34   110   109    2
    35    66    54   am
    36    55    54    2
    37    70    71    1
    38    60    58   ar
    39    54    53    1
    40    18    19    1
    41    53    52    1
    42    38    36    1
    43   109   108    1
    44    19    22    1
    45     1     2    1
    46   111   108    1
    47   111   112    1
    48    93    94    1
    49    71    72    1
    50    22    23    1
    51    36    35    1
    52    36    37    1
    53   108   107    1
    54   107    95   am
    55    52    46   am
    56    12    11    2
    57    35    32    1
    58    72    73    1
    59   113   112   ar
    60   113   115   ar
    61    11    10    1
    62     2     3    1
    63     2     5    1
    64    99   101   ar
    65    99    98   ar
    66   112   114   ar
    67     3     4    2
    68    23    24    1
    69    94    95    1
    70    94    97    1
    71     9    10    1
    72    34    33    2
    73    95    96    2
    74   101   102   ar
    75   115   117   ar
    76    46    47    2
    77    46    45    1
    78    97    98    1
    79    10    13    1
    80    32    31    1
    81    32    33    1
    82    31    29   am
    83    98   100   ar
    84    25    24    2
    85     6     5    1
    86     6     8    1
    87    73    74    1
    88    33    39   am
    89     5     7    1
    90    24    26   am
    91   114   116   ar
    92    28    29    1
    93    28    27    1
    94    29    30    2
    95    39    40    1
    96   102   100   ar
    97   102   104   ar
    98    45    44    1
    99    45    48    1
   100    44    41   am
   101   117   116   ar
   102   117   118    1
   103    41    40    1
   104    41    42    2
   105   100   103   ar
   106    40    43    1
   107    13    14    1
   108   104   106   ar
   109    48    49    1
   110   103   105   ar
   111    14    15    1
   112   106   105   ar
   113    51    49   am
   114    49    50    2
   115    15    16    1
   116    16    17    1
