@<TRIPOS>MOLECULE
tmp/1xb7A00.pdb
 111 103 0 0 0
SMALL
GASTEIGER

@<TRIPOS>ATOM
      1  N        -12.9540   65.8420   24.6050 N.3    41  VAL41      -0.1245
      2  CA       -11.5050   66.0350   24.4340 C.3    41  VAL41       0.1561
      3  C        -10.7780   64.7350   24.7380 C.2    41  VAL41       0.2260
      4  O         -9.9420   64.2870   23.9790 O.2    41  VAL41      -0.2867
      5  CB       -10.9340   67.1620   25.3660 C.3    41  VAL41       0.0252
      6  CG1       -9.3950   67.2600   25.2520 C.3    41  VAL41       0.0019
      7  CG2      -11.5660   68.4920   25.0460 C.3    41  VAL41       0.0019
      8  N        -11.3990   62.0750   22.1370 N.3    44  ILE44      -0.1245
      9  CA       -10.6050   62.2520   20.9200 C.3    44  ILE44       0.1561
     10  C         -9.2240   61.6200   21.0370 C.2    44  ILE44       0.2260
     11  O         -8.7880   60.9180   20.1080 O.2    44  ILE44      -0.2867
     12  CB       -10.4810   63.7190   20.5360 C.3    44  ILE44       0.0252
     13  CG1      -11.8360   64.2340   20.0420 C.3    44  ILE44       0.0019
     14  CG2       -9.4510   63.8900   19.4280 C.3    44  ILE44       0.0019
     15  CD1      -11.9540   65.7490   20.0450 C.3    44  ILE44       0.0001
     16  N         -7.4990   58.0850   19.2440 N.3    48  LYS48      -0.1245
     17  CA        -6.1620   58.0340   18.6510 C.3    48  LYS48       0.1561
     18  C         -5.2740   56.8920   19.1530 C.2    48  LYS48       0.2260
     19  O         -4.4440   56.3980   18.4010 O.2    48  LYS48      -0.2867
     20  CB        -5.4550   59.3670   18.8160 C.3    48  LYS48       0.0271
     21  CG        -6.1230   60.4640   17.9760 C.3    48  LYS48       0.0035
     22  CD        -5.8380   61.8340   18.5270 C.3    48  LYS48       0.0206
     23  CE        -4.4070   62.2610   18.2300 C.3    48  LYS48       0.1093
     24  NZ        -4.1970   63.6630   18.6810 N.3    48  LYS48      -0.1314
     25  N         -7.1350   53.2740   14.1450 N.3    53  PHE53      -0.1241
     26  CA        -7.9410   54.4750   13.9780 C.3    53  PHE53       0.1605
     27  C         -7.1970   55.5720   13.2300 C.2    53  PHE53       0.2264
     28  O         -7.7250   56.1590   12.2690 O.2    53  PHE53      -0.2867
     29  CB        -8.4220   55.0090   15.3340 C.3    53  PHE53       0.0534
     30  CG        -9.2850   56.2340   15.2310 C.ar   53  PHE53      -0.0203
     31  CD1      -10.6110   56.1390   14.8070 C.ar   53  PHE53      -0.0042
     32  CD2       -8.7770   57.4930   15.5600 C.ar   53  PHE53      -0.0042
     33  CE1      -11.4230   57.2800   14.7020 C.ar   53  PHE53      -0.0003
     34  CE2       -9.5850   58.6380   15.4670 C.ar   53  PHE53      -0.0003
     35  CZ       -10.9180   58.5230   15.0370 C.ar   53  PHE53      -0.0000
     36  N         -7.9600   61.5930    7.8420 N.3    58  LEU58      -0.1245
     37  CA        -8.4290   62.5140    8.8600 C.3    58  LEU58       0.1561
     38  C         -9.8850   62.8050    8.7170 C.2    58  LEU58       0.2260
     39  O        -10.5710   62.9610    9.7220 O.2    58  LEU58      -0.2867
     40  CB        -7.6960   63.8500    8.8350 C.3    58  LEU58       0.0270
     41  CG        -6.3080   63.8430    9.4610 C.3    58  LEU58       0.0019
     42  CD1       -5.7810   65.2210    9.4040 C.3    58  LEU58       0.0001
     43  CD2       -6.2900   63.3830   10.8930 C.3    58  LEU58       0.0001
     44  N        -11.6960   60.0470   10.1600 N.3    61  GLN61      -0.1231
     45  CA       -11.5670   60.0380   11.6030 C.3    61  GLN61       0.1698
     46  C        -12.5560   61.0040   12.1830 C.2    61  GLN61       0.2592
     47  O        -13.1250   60.7640   13.2430 O.2    61  GLN61      -0.2718
     48  CB       -10.1780   60.4740   12.0460 C.3    61  GLN61       0.0381
     49  CG        -9.1070   59.4820   11.6950 C.3    61  GLN61       0.0905
     50  CD        -7.7030   59.9430   12.0760 C.2    61  GLN61       0.2608
     51  OE1       -7.4960   60.5060   13.1500 O.2    61  GLN61      -0.2717
     52  NE2       -6.7420   59.6390   11.2290 N.am   61  GLN61      -0.0878
     53  N        -12.7430   62.1080   11.4700 N.am   62  MET62      -0.1979
     54  CA       -13.6450   63.1520   11.8710 C.3    62  MET62       0.1605
     55  C        -15.0670   62.6380   11.8000 C.2    62  MET62       0.2287
     56  O        -15.7960   62.7760   12.7520 O.2    62  MET62      -0.2864
     57  CB       -13.4550   64.4080   10.9980 C.3    62  MET62       0.0413
     58  CG       -12.2820   65.2450   11.4600 C.3    62  MET62       0.0598
     59  SD       -12.0430   66.8120   10.5900 S.3    62  MET62      -0.1393
     60  CE       -13.5850   67.7050   10.9060 C.3    62  MET62       0.0692
     61  N        -15.9240   59.9810   14.6000 N.3    65  LEU65      -0.1231
     62  CA       -16.0310   60.5880   15.8920 C.3    65  LEU65       0.1693
     63  C        -17.2650   61.4270   16.0260 C.2    65  LEU65       0.2591
     64  O        -17.8970   61.4220   17.0630 O.2    65  LEU65      -0.2718
     65  CB       -14.8240   61.4560   16.1850 C.3    65  LEU65       0.0284
     66  CG       -13.5980   60.6700   16.6110 C.3    65  LEU65       0.0019
     67  CD1      -12.3620   61.5480   16.5120 C.3    65  LEU65       0.0001
     68  CD2      -13.8050   60.1160   18.0150 C.3    65  LEU65       0.0001
     69  N        -17.6260   62.1650   14.9970 N.am   66  GLN66      -0.1979
     70  CA       -18.7570   63.0350   15.1600 C.3    66  GLN66       0.1601
     71  C        -20.0950   62.2900   15.0730 C.2    66  GLN66       0.2287
     72  O        -21.1290   62.8150   15.4510 O.2    66  GLN66      -0.2864
     73  CB       -18.6580   64.2320   14.2470 C.3    66  GLN66       0.0394
     74  CG       -18.7650   63.9460   12.7920 C.3    66  GLN66       0.0908
     75  CD       -18.3160   65.1270   11.9400 C.2    66  GLN66       0.2608
     76  OE1      -17.6190   66.0180   12.4160 O.2    66  GLN66      -0.2717
     77  NE2      -18.7260   65.1200   10.6650 N.am   66  GLN66      -0.0878
     78  N        -17.2160   75.6590   22.5240 N.3   207  LYS207     -0.1231
     79  CA       -17.1310   75.5430   21.0680 C.3   207  LYS207      0.1693
     80  C        -17.2540   74.1050   20.5830 C.2   207  LYS207      0.2591
     81  O        -18.1060   73.8000   19.7550 O.2   207  LYS207     -0.2718
     82  CB       -15.7850   76.1000   20.5690 C.3   207  LYS207      0.0285
     83  CG       -15.7510   77.6010   20.3100 C.3   207  LYS207      0.0035
     84  CD       -14.5130   78.2870   20.9500 C.3   207  LYS207      0.0206
     85  CE       -14.7240   79.8140   21.1170 C.3   207  LYS207      0.1093
     86  NZ       -13.5470   80.6170   20.6310 N.3   207  LYS207     -0.1314
     87  N        -16.3740   73.2440   21.0960 N.am  208  LEU208     -0.1980
     88  CA       -16.2770   71.8430   20.6790 C.3   208  LEU208      0.1596
     89  C        -17.6140   71.1140   20.8400 C.2   208  LEU208      0.2287
     90  O        -18.0380   70.4030   19.9280 O.2   208  LEU208     -0.2864
     91  CB       -15.1910   71.1330   21.4780 C.3   208  LEU208      0.0297
     92  CG       -14.9210   69.6620   21.1760 C.3   208  LEU208      0.0022
     93  CD1      -14.4660   69.4650   19.7320 C.3   208  LEU208      0.0001
     94  CD2      -13.8800   69.0970   22.1530 C.3   208  LEU208      0.0001
     95  N        -20.0590   72.3610   18.1660 N.3   211  GLU211     -0.1231
     96  CA       -19.6240   71.7630   16.9100 C.3   211  GLU211      0.1699
     97  C        -20.0680   70.2970   16.7620 C.2   211  GLU211      0.2592
     98  O        -20.5080   69.8930   15.6780 O.2   211  GLU211     -0.2718
     99  CB       -18.1130   71.8740   16.8260 C.3   211  GLU211      0.0402
    100  CG       -17.5070   71.6270   15.4630 C.3   211  GLU211      0.1161
    101  CD       -15.9940   71.7650   15.5190 C.2   211  GLU211      0.3649
    102  OE1      -15.2860   70.7300   15.3740 O.co2 211  GLU211     -0.2457
    103  OE2      -15.5240   72.9190   15.7470 O.co2 211  GLU211     -0.2457
    104  N        -19.9740   69.5110   17.8390 N.am  212  MET212     -0.1979
    105  CA       -20.3220   68.0960   17.7760 C.3   212  MET212      0.1605
    106  C        -21.8280   67.8710   17.7760 C.2   212  MET212      0.2287
    107  O        -22.3060   66.8840   17.2290 O.2   212  MET212     -0.2864
    108  CB       -19.6890   67.3180   18.9230 C.3   212  MET212      0.0413
    109  CG       -18.1560   67.4170   19.0150 C.3   212  MET212      0.0598
    110  SD       -17.2720   66.7240   17.5940 S.3   212  MET212     -0.1393
    111  CE       -17.0500   65.1080   18.0910 C.3   212  MET212      0.0692
@<TRIPOS>BOND
     1    36    37    1
     2    38    37    1
     3    38    39    2
     4    40    37    1
     5    40    41    1
     6    42    41    1
     7    41    43    1
     8    44    45    1
     9    59    60    1
    10    59    58    1
    11    77    75   am
    12    57    58    1
    13    57    54    1
    14    52    50   am
    15    53    54    1
    16    53    46   am
    17    45    48    1
    18    45    46    1
    19    49    48    1
    20    49    50    1
    21    55    54    1
    22    55    56    2
    23    75    76    2
    24    75    74    1
    25    50    51    2
    26    46    47    2
    27    28    27    2
    28    74    73    1
    29    27    26    1
    30    26    25    1
    31    26    29    1
    32    73    70    1
    33    61    62    1
    34    33    31   ar
    35    33    35   ar
    36    31    30   ar
    37    69    70    1
    38    69    63   am
    39    35    34   ar
    40    71    70    1
    41    71    72    2
    42    30    29    1
    43    30    32   ar
    44   102   101   ar
    45   100   101    1
    46   100    99    1
    47    34    32   ar
    48   101   103   ar
    49    98    97    2
    50    62    63    1
    51    62    65    1
    52    63    64    2
    53    65    66    1
    54    67    66    1
    55    66    68    1
    56    97    96    1
    57    97   104   am
    58    99    96    1
    59    96    95    1
    60   107   106    2
    61   110   111    1
    62   110   109    1
    63   105   106    1
    64   105   104    1
    65   105   108    1
    66    21    22    1
    67    21    20    1
    68    23    22    1
    69    23    24    1
    70    19    18    2
    71    17    20    1
    72    17    18    1
    73    17    16    1
    74   108   109    1
    75    14    12    1
    76    93    92    1
    77    81    80    2
    78    90    89    2
    79    13    15    1
    80    13    12    1
    81    11    10    2
    82    83    82    1
    83    83    84    1
    84    12     9    1
    85    82    79    1
    86    80    79    1
    87    80    87   am
    88    86    85    1
    89    88    89    1
    90    88    87    1
    91    88    91    1
    92     9    10    1
    93     9     8    1
    94    84    85    1
    95    79    78    1
    96    92    91    1
    97    92    94    1
    98     4     3    2
    99     2     1    1
   100     2     3    1
   101     2     5    1
   102     7     5    1
   103     6     5    1
