@<TRIPOS>MOLECULE
tmp/1xbbA00.pdb
 167 156 0 0 0
SMALL
GASTEIGER

@<TRIPOS>ATOM
      1  N         -1.2650   -3.5440    7.9290 N.3    15  LEU15      -0.1231
      2  CA        -1.7680   -2.8780    9.1300 C.3    15  LEU15       0.1693
      3  C         -2.2750   -1.4690    8.8250 C.2    15  LEU15       0.2593
      4  O         -3.2090   -0.9850    9.4710 O.2    15  LEU15      -0.2718
      5  CB        -0.6910   -2.8160   10.2160 C.3    15  LEU15       0.0284
      6  CG        -0.0840   -4.1100   10.7690 C.3    15  LEU15       0.0019
      7  CD1        1.1040   -3.7370   11.6340 C.3    15  LEU15       0.0001
      8  CD2       -1.0830   -4.9600   11.5550 C.3    15  LEU15       0.0001
      9  N         -1.6530   -0.8190    7.8470 N.am   16  GLY16      -0.1942
     10  CA        -2.0330    0.5230    7.4490 C.3    16  GLY16       0.2014
     11  C         -1.4610    0.8990    6.0980 C.2    16  GLY16       0.2640
     12  O         -0.5430    0.2370    5.5940 O.2    16  GLY16      -0.2714
     13  N         -2.0060    1.9680    5.5190 N.am   17  SER17      -0.1935
     14  CA        -1.6120    2.4530    4.1940 C.3    17  SER17       0.2055
     15  C         -1.6580    3.9690    4.1030 C.2    17  SER17       0.2643
     16  O         -2.3910    4.6240    4.8500 O.2    17  SER17      -0.2714
     17  CB        -2.5480    1.8960    3.1230 C.3    17  SER17       0.2130
     18  OG        -2.1750    0.5850    2.7550 O.3    17  SER17      -0.2179
     19  N         -0.8930    4.5140    3.1590 N.am   18  GLY18      -0.1954
     20  CA        -0.9020    5.9360    2.8570 C.3    18  GLY18       0.1869
     21  C         -0.0680    6.2630    1.6320 C.2    18  GLY18       0.2309
     22  O          0.3480    5.3620    0.8900 O.2    18  GLY18      -0.2863
     23  N          2.2850   -0.2690    6.0470 N.3    23  VAL23      -0.1245
     24  CA         2.8780   -0.8340    7.2630 C.3    23  VAL23       0.1561
     25  C          2.4130   -2.2690    7.2620 C.2    23  VAL23       0.2260
     26  O          1.2360   -2.5380    7.0590 O.2    23  VAL23      -0.2867
     27  CB         2.4220   -0.0940    8.5550 C.3    23  VAL23       0.0252
     28  CG1        2.9970   -0.7620    9.8080 C.3    23  VAL23       0.0019
     29  CG2        2.8390    1.3850    8.5020 C.3    23  VAL23       0.0019
     30  N          6.9790   -4.6430   13.1500 N.3    38  ALA38      -0.1245
     31  CA         6.1250   -3.8370   12.3090 C.3    38  ALA38       0.1562
     32  C          7.0890   -3.2340   11.2930 C.2    38  ALA38       0.2260
     33  O          8.1590   -2.7540   11.6830 O.2    38  ALA38      -0.2867
     34  CB         5.4370   -2.7360   13.1420 C.3    38  ALA38       0.0290
     35  N          7.6880   -0.6270    8.0670 N.3    40  LYS40      -0.1245
     36  CA         7.2220    0.4610    7.1980 C.3    40  LYS40       0.1561
     37  C          7.8780    0.2500    5.8330 C.2    40  LYS40       0.2260
     38  O          9.1020    0.2280    5.7430 O.2    40  LYS40      -0.2867
     39  CB         7.5940    1.8150    7.8060 C.3    40  LYS40       0.0271
     40  CG         7.0300    3.0350    7.0270 C.3    40  LYS40       0.0035
     41  CD         7.4640    4.3130    7.7400 C.3    40  LYS40       0.0206
     42  CE         6.7870    5.5270    7.1400 C.3    40  LYS40       0.1093
     43  NZ         7.2250    6.7170    7.9080 N.3    40  LYS40      -0.1314
     44  N         14.5620    9.3060    9.0610 N.3    53  GLU53      -0.1245
     45  CA        13.7790    8.7360   10.1730 C.3    53  GLU53       0.1567
     46  C         14.5620    7.6510   10.9240 C.2    53  GLU53       0.2260
     47  O         14.6300    7.6650   12.1380 O.2    53  GLU53      -0.2867
     48  CB        12.4630    8.1990    9.6400 C.3    53  GLU53       0.0388
     49  CG        11.4800    7.7310   10.7010 C.3    53  GLU53       0.1160
     50  CD        10.1820    7.2990   10.0540 C.2    53  GLU53       0.3649
     51  OE1        9.9720    7.5710    8.8670 O.co2  53  GLU53      -0.2457
     52  OE2        9.3610    6.6630   10.7370 O.co2  53  GLU53      -0.2457
     53  N         15.9080    7.3730   14.8880 N.3    57  MET57      -0.1245
     54  CA        15.5800    6.2290   15.7730 C.3    57  MET57       0.1570
     55  C         16.8180    5.4980   16.2760 C.2    57  MET57       0.2261
     56  O         16.8420    5.0680   17.4230 O.2    57  MET57      -0.2867
     57  CB        14.5810    5.2730   15.0950 C.3    57  MET57       0.0387
     58  CG        13.2270    5.9260   14.7530 C.3    57  MET57       0.0595
     59  SD        12.0390    4.7630   14.0050 S.3    57  MET57      -0.1393
     60  CE        11.3550    3.9710   15.4180 C.3    57  MET57       0.0692
     61  N          9.2700    3.7760   20.5070 N.3    66  VAL66      -0.1245
     62  CA         9.3840    2.5730   19.6610 C.3    66  VAL66       0.1561
     63  C         10.8480    2.3530   19.1740 C.2    66  VAL66       0.2260
     64  O         11.5030    3.2640   18.6690 O.2    66  VAL66      -0.2867
     65  CB         8.5170    2.6990   18.4250 C.3    66  VAL66       0.0252
     66  CG1        8.8690    1.5910   17.3560 C.3    66  VAL66       0.0019
     67  CG2        6.9700    2.7530   18.7180 C.3    66  VAL66       0.0019
     68  N         10.7310   -2.2150   12.7980 N.3    81  MET81      -0.1230
     69  CA        10.5920   -1.7510   14.1850 C.3    81  MET81       0.1702
     70  C         10.0000   -2.8500   15.0560 C.2    81  MET81       0.2592
     71  O          9.4130   -3.7990   14.5780 O.2    81  MET81      -0.2718
     72  CB         9.6300   -0.5760   14.1990 C.3    81  MET81       0.0401
     73  CG        10.2240    0.6430   13.5510 C.3    81  MET81       0.0596
     74  SD         8.9530    1.8480   13.1260 S.3    81  MET81      -0.1393
     75  CE         8.1040    0.9870   11.7470 C.3    81  MET81       0.0692
     76  N         10.1650   -2.6630   16.3450 N.am   82  GLU82      -0.1966
     77  CA         9.4740   -3.5590   17.2610 C.3    82  GLU82       0.1733
     78  C          7.9800   -3.3620   17.0900 C.2    82  GLU82       0.2616
     79  O          7.5410   -2.3410   16.5850 O.2    82  GLU82      -0.2715
     80  CB         9.9240   -3.2710   18.6680 C.3    82  GLU82       0.0429
     81  CG         9.2670   -2.0020   19.2120 C.3    82  GLU82       0.1163
     82  CD         9.6170   -1.7430   20.6640 C.2    82  GLU82       0.3649
     83  OE1        9.5960   -2.7140   21.4630 O.co2  82  GLU82      -0.2457
     84  OE2        9.9490   -0.6040   20.9980 O.co2  82  GLU82      -0.2457
     85  N          7.1960   -4.3950   17.4120 N.am   83  MET83      -0.1963
     86  CA         5.7390   -4.3550   17.2360 C.3    83  MET83       0.1736
     87  C          5.0590   -3.9010   18.5180 C.2    83  MET83       0.2616
     88  O          5.4510   -4.3500   19.6020 O.2    83  MET83      -0.2715
     89  CB         5.3050   -5.7960   16.8690 C.3    83  MET83       0.0427
     90  CG         3.7900   -6.0350   16.9170 C.3    83  MET83       0.0599
     91  SD         2.9160   -5.0350   15.7360 S.3    83  MET83      -0.1393
     92  CE         3.1540   -5.9200   14.2270 C.3    83  MET83       0.0692
     93  N          4.0410   -3.0570   18.3700 N.am   84  ALA84      -0.1963
     94  CA         3.1590   -2.6640   19.4920 C.3    84  ALA84       0.1728
     95  C          1.8000   -3.1840   19.0550 C.2    84  ALA84       0.2616
     96  O          1.1020   -2.6060   18.2100 O.2    84  ALA84      -0.2715
     97  CB         3.1830   -1.1140   19.6640 C.3    84  ALA84       0.0334
     98  N          1.4520   -4.3510   19.6160 N.am   85  GLU85      -0.1963
     99  CA         0.3340   -5.1190   19.1010 C.3    85  GLU85       0.1733
    100  C         -1.0300   -4.4620   19.1650 C.2    85  GLU85       0.2616
    101  O         -1.9030   -4.7220   18.2950 O.2    85  GLU85      -0.2715
    102  CB         0.2250   -6.4620   19.8500 C.3    85  GLU85       0.0429
    103  CG         1.3770   -7.4070   19.5680 C.3    85  GLU85       0.1163
    104  CD         1.1670   -8.2410   18.3010 C.2    85  GLU85       0.3649
    105  OE1        2.1030   -9.0110   17.9930 O.co2  85  GLU85      -0.2457
    106  OE2        0.1120   -8.1110   17.6310 O.co2  85  GLU85      -0.2457
    107  N         -1.2370   -3.6010   20.1550 N.am   86  LEU86      -0.1963
    108  CA        -2.5560   -3.0230   20.3020 C.3    86  LEU86       0.1728
    109  C         -2.7720   -1.7920   19.3960 C.2    86  LEU86       0.2617
    110  O         -3.8720   -1.2440   19.3350 O.2    86  LEU86      -0.2715
    111  CB        -2.8510   -2.7400   21.7830 C.3    86  LEU86       0.0311
    112  CG        -3.3730   -3.8680   22.6950 C.3    86  LEU86       0.0022
    113  CD1       -2.4260   -5.0220   22.7120 C.3    86  LEU86       0.0001
    114  CD2       -3.5180   -3.3120   24.0980 C.3    86  LEU86       0.0001
    115  N         -1.7310   -1.3350   18.6950 N.am   87  GLY87      -0.1941
    116  CA        -1.9110   -0.2450   17.7550 C.3    87  GLY87       0.1998
    117  C         -2.0540    1.1630   18.3180 C.2    87  GLY87       0.2480
    118  O         -1.7850    1.4130   19.4740 O.2    87  GLY87      -0.2729
    119  N         -2.4230    2.1030   17.4500 N.am   88  PRO88      -0.2726
    120  CA        -2.5220    3.5170   17.8270 C.3    88  PRO88       0.1402
    121  C         -3.4790    3.7720   18.9510 C.2    88  PRO88       0.2269
    122  O         -4.5830    3.1590   19.0050 O.2    88  PRO88      -0.2865
    123  CB        -3.0430    4.1710   16.5680 C.3    88  PRO88       0.0296
    124  CG        -2.5140    3.2830   15.4710 C.3    88  PRO88       0.0237
    125  CD        -2.6280    1.8800   16.0010 C.3    88  PRO88       0.0939
    126  N         -7.3210    5.0850   18.1800 N.3    91  LYS91      -0.1245
    127  CA        -8.1800    3.9920   17.7270 C.3    91  LYS91       0.1561
    128  C         -8.4980    3.0300   18.8720 C.2    91  LYS91       0.2260
    129  O         -9.6640    2.6080   19.0200 O.2    91  LYS91      -0.2867
    130  CB        -7.5510    3.2470   16.5530 C.3    91  LYS91       0.0271
    131  CG        -7.4890    4.1050   15.2920 C.3    91  LYS91       0.0035
    132  CD        -6.8620    3.3440   14.1290 C.3    91  LYS91       0.0206
    133  CE        -6.6840    4.2680   12.9290 C.3    91  LYS91       0.1093
    134  NZ        -6.3160    5.6480   13.3540 N.3    91  LYS91      -0.1314
    135  N         -2.5140    9.5260   17.6040 N.3   131  ARG131     -0.1245
    136  CA        -2.3240    8.5390   16.5470 C.3   131  ARG131      0.1563
    137  C         -0.9110    7.9660   16.4710 C.2   131  ARG131      0.2260
    138  O         -0.7360    6.9170   15.8820 O.2   131  ARG131     -0.2867
    139  CB        -2.7200    9.1540   15.1750 C.3   131  ARG131      0.0307
    140  CG        -1.7610   10.2810   14.7060 C.3   131  ARG131      0.0489
    141  CD        -2.0700   10.9910   13.3350 C.3   131  ARG131      0.2205
    142  NE        -1.2790   12.2250   13.1950 N.pl3 131  ARG131     -0.0865
    143  CZ        -1.6880   13.4130   13.6380 C.cat 131  ARG131      0.5346
    144  NH1       -2.8680   13.5130   14.2370 N.pl3 131  ARG131      0.1354
    145  NH2       -0.9320   14.5000   13.5160 N.pl3 131  ARG131      0.1354
    146  N          1.6190    4.2870   20.3700 N.3   134  LEU134     -0.1245
    147  CA         1.2170    2.9040   20.1070 C.3   134  LEU134      0.1561
    148  C          1.2370    2.1250   21.3830 C.2   134  LEU134      0.2260
    149  O          2.0660    2.3650   22.2410 O.2   134  LEU134     -0.2867
    150  CB         2.2300    2.3000   19.1600 C.3   134  LEU134      0.0270
    151  CG         2.3790    3.0650   17.8300 C.3   134  LEU134      0.0019
    152  CD1        3.4750    2.3820   16.9920 C.3   134  LEU134      0.0001
    153  CD2        1.1200    3.3340   17.0210 C.3   134  LEU134      0.0001
    154  N          5.8210    6.8490   18.6420 N.3   144  SER144     -0.1202
    155  CA         6.2210    6.4020   17.3070 C.3   144  SER144      0.2020
    156  C          6.2440    7.5820   16.3640 C.2   144  SER144      0.2618
    157  O          5.8650    8.7120   16.7400 O.2   144  SER144     -0.2717
    158  CB         5.2240    5.3640   16.7620 C.3   144  SER144      0.2103
    159  OG         3.9970    5.9730   16.4090 O.3   144  SER144     -0.2182
    160  N          6.6600    7.2950   15.1430 N.am  145  ASP145     -0.1973
    161  CA         6.5710    8.2100   13.9930 C.3   145  ASP145      0.1709
    162  C          7.4600    9.4120   14.0690 C.2   145  ASP145      0.2293
    163  O          7.0110   10.5190   14.3670 O.2   145  ASP145     -0.2864
    164  CB         5.1590    8.6420   13.5970 C.3   145  ASP145      0.1436
    165  CG         5.1550    9.0420   12.1100 C.2   145  ASP145      0.3671
    166  OD1        4.1400    8.8880   11.4090 O.co2 145  ASP145     -0.2456
    167  OD2        6.2160    9.4790   11.5470 O.co2 145  ASP145     -0.2456
@<TRIPOS>BOND
     1    22    21    2
     2    21    20    1
     3    18    17    1
     4    20    19    1
     5    17    14    1
     6    19    15   am
     7    15    14    1
     8    15    16    2
     9    14    13    1
    10    13    11   am
    11    12    11    2
    12    38    37    2
    13    37    36    1
    14    23    24    1
    15    11    10    1
    16    40    41    1
    17    40    39    1
    18    26    25    2
    19    42    41    1
    20    42    43    1
    21    36    39    1
    22    36    35    1
    23    25    24    1
    24    24    27    1
    25    10     9    1
    26     9     3   am
    27     1     2    1
    28    29    27    1
    29    27    28    1
    30     3     2    1
    31     3     4    2
    32    51    50   ar
    33    44    45    1
    34     2     5    1
    35    48    45    1
    36    48    49    1
    37    50    49    1
    38    50    52   ar
    39    45    46    1
    40     5     6    1
    41     6     8    1
    42     6     7    1
    43    46    47    2
    44    32    33    2
    45    32    31    1
    46   166   165   ar
    47   167   165   ar
    48    75    74    1
    49   165   164    1
    50    31    34    1
    51    31    30    1
    52    68    69    1
    53   133   134    1
    54   133   132    1
    55    74    73    1
    56   142   141    1
    57   142   143    2
    58   141   140    1
    59   145   143    1
    60    73    72    1
    61   164   161    1
    62   143   144    1
    63   161   162    1
    64   161   160    1
    65    59    58    1
    66    59    60    1
    67   162   163    2
    68   132   131    1
    69    69    72    1
    70    69    70    1
    71    92    91    1
    72    71    70    2
    73   140   139    1
    74    58    57    1
    75    53    54    1
    76    70    76   am
    77    57    54    1
    78   160   156   am
    79   139   136    1
    80   131   130    1
    81   124   125    1
    82   124   123    1
    83    91    90    1
    84    54    55    1
    85   138   137    2
    86   125   119    1
    87    55    56    2
    88    76    77    1
    89   156   157    2
    90   156   155    1
    91   159   158    1
    92   137   136    1
    93   136   135    1
    94   130   127    1
    95   123   120    1
    96    79    78    2
    97   158   155    1
    98    89    90    1
    99    89    86    1
   100   152   151    1
   101   153   151    1
   102    78    77    1
   103    78    85   am
   104    86    85    1
   105    86    87    1
   106    77    80    1
   107   155   154    1
   108    66    65    1
   109   119   120    1
   110   119   117   am
   111   106   104   ar
   112   127   126    1
   113   127   128    1
   114   116   117    1
   115   116   115    1
   116   120   121    1
   117   151   150    1
   118   105   104   ar
   119    96    95    2
   120   101   100    2
   121   104   103    1
   122   117   118    2
   123    93    87   am
   124    93    94    1
   125    65    67    1
   126    65    62    1
   127    87    88    2
   128    80    81    1
   129    64    63    2
   130   115   109   am
   131   128   129    2
   132   121   122    2
   133    95    94    1
   134    95    98   am
   135    99   100    1
   136    99    98    1
   137    99   102    1
   138   150   147    1
   139   100   107   am
   140    63    62    1
   141    81    82    1
   142   110   109    2
   143   109   108    1
   144    94    97    1
   145   103   102    1
   146    62    61    1
   147   147   146    1
   148   147   148    1
   149   107   108    1
   150   108   111    1
   151    82    84   ar
   152    82    83   ar
   153   148   149    2
   154   111   112    1
   155   112   113    1
   156   112   114    1
