@<TRIPOS>MOLECULE
tmp/1xbcA00.pdb
 161 151 0 0 0
SMALL
GASTEIGER

@<TRIPOS>ATOM
      1  N         -0.3800   -3.0760    8.8960 N.3    15  LEU15      -0.1231
      2  CA        -0.7100   -2.3850   10.1440 C.3    15  LEU15       0.1693
      3  C         -1.2310   -0.9700    9.9060 C.2    15  LEU15       0.2593
      4  O         -2.1380   -0.5110   10.5990 O.2    15  LEU15      -0.2718
      5  CB         0.4850   -2.3700   11.0990 C.3    15  LEU15       0.0284
      6  CG         0.9920   -3.7280   11.5890 C.3    15  LEU15       0.0019
      7  CD1        2.3330   -3.5670   12.2820 C.3    15  LEU15       0.0001
      8  CD2       -0.0230   -4.4160   12.5090 C.3    15  LEU15       0.0001
      9  N         -0.6530   -0.2850    8.9260 N.am   16  GLY16      -0.1942
     10  CA        -1.0980    1.0450    8.5550 C.3    16  GLY16       0.2014
     11  C         -0.4500    1.5400    7.2800 C.2    16  GLY16       0.2640
     12  O          0.3920    0.8560    6.6950 O.2    16  GLY16      -0.2714
     13  N         -0.8480    2.7350    6.8510 N.am   17  SER17      -0.1935
     14  CA        -0.2950    3.3480    5.6470 C.3    17  SER17       0.2055
     15  C         -0.2800    4.8690    5.7490 C.2    17  SER17       0.2643
     16  O         -1.1170    5.4620    6.4290 O.2    17  SER17      -0.2714
     17  CB        -1.0900    2.9140    4.4130 C.3    17  SER17       0.2130
     18  OG        -2.4680    3.2080    4.5710 O.3    17  SER17      -0.2179
     19  N          0.6840    5.4860    5.0700 N.am   18  GLY18      -0.1954
     20  CA         0.7720    6.9340    4.9650 C.3    18  GLY18       0.1869
     21  C          1.2320    7.3510    3.5800 C.2    18  GLY18       0.2309
     22  O          1.1330    6.5720    2.6240 O.2    18  GLY18      -0.2863
     23  N          4.3100    7.9090    2.8310 N.3    20  PHE20      -0.1241
     24  CA         5.5760    7.1890    2.6700 C.3    20  PHE20       0.1605
     25  C          5.4210    5.8200    2.0090 C.2    20  PHE20       0.2264
     26  O          6.3530    5.3160    1.3810 O.2    20  PHE20      -0.2867
     27  CB         6.2470    7.0070    4.0360 C.3    20  PHE20       0.0534
     28  CG         5.3730    6.3180    5.0580 C.ar   20  PHE20      -0.0203
     29  CD1        4.6140    7.0620    5.9590 C.ar   20  PHE20      -0.0042
     30  CD2        5.3110    4.9280    5.1220 C.ar   20  PHE20      -0.0042
     31  CE1        3.8060    6.4330    6.9070 C.ar   20  PHE20      -0.0003
     32  CE2        4.5010    4.2890    6.0610 C.ar   20  PHE20      -0.0003
     33  CZ         3.7500    5.0430    6.9550 C.ar   20  PHE20      -0.0000
     34  N          3.0440    0.2570    6.5010 N.3    23  VAL23      -0.1245
     35  CA         3.6670   -0.4520    7.6070 C.3    23  VAL23       0.1561
     36  C          3.0450   -1.8420    7.6760 C.2    23  VAL23       0.2260
     37  O          1.8210   -1.9840    7.6730 O.2    23  VAL23      -0.2867
     38  CB         3.5070    0.2920    8.9590 C.3    23  VAL23       0.0252
     39  CG1        4.2220   -0.4590   10.0690 C.3    23  VAL23       0.0019
     40  CG2        4.0470    1.7220    8.8670 C.3    23  VAL23       0.0019
     41  N          7.4130   -4.3470   13.4420 N.3    38  ALA38      -0.1245
     42  CA         6.6480   -3.5620   12.4880 C.3    38  ALA38       0.1562
     43  C          7.6320   -2.9850   11.4750 C.2    38  ALA38       0.2260
     44  O          8.6990   -2.4980   11.8460 O.2    38  ALA38      -0.2867
     45  CB         5.8890   -2.4570   13.1870 C.3    38  ALA38       0.0290
     46  N          8.2780   -0.4230    8.2490 N.3    40  LYS40      -0.1245
     47  CA         7.8730    0.6900    7.3970 C.3    40  LYS40       0.1561
     48  C          8.4470    0.4670    6.0010 C.2    40  LYS40       0.2260
     49  O          9.6580    0.3630    5.8380 O.2    40  LYS40      -0.2867
     50  CB         8.3670    2.0130    7.9830 C.3    40  LYS40       0.0271
     51  CG         7.6580    3.2380    7.4480 C.3    40  LYS40       0.0035
     52  CD         8.4120    4.5010    7.8190 C.3    40  LYS40       0.0206
     53  CE         7.4840    5.6920    7.9050 C.3    40  LYS40       0.1093
     54  NZ         8.2340    6.9590    8.1450 N.3    40  LYS40      -0.1314
     55  N         15.0520    9.6150    9.3430 N.3    52  GLU52      -0.1245
     56  CA        14.2670    8.9960   10.4130 C.3    52  GLU52       0.1567
     57  C         15.0560    7.8940   11.1180 C.2    52  GLU52       0.2260
     58  O         15.0200    7.7870   12.3490 O.2    52  GLU52      -0.2867
     59  CB        12.9700    8.4230    9.8400 C.3    52  GLU52       0.0388
     60  CG        11.8840    8.1290   10.8650 C.3    52  GLU52       0.1160
     61  CD        10.7030    7.3780   10.2690 C.2    52  GLU52       0.3649
     62  OE1       10.7500    7.0300    9.0690 O.co2  52  GLU52      -0.2457
     63  OE2        9.7220    7.1340   11.0000 O.co2  52  GLU52      -0.2457
     64  N          9.2050    3.7380   20.4960 N.3    65  VAL65      -0.1245
     65  CA         9.3620    2.6040   19.5940 C.3    65  VAL65       0.1561
     66  C         10.7790    2.6520   19.0210 C.2    65  VAL65       0.2260
     67  O         11.1310    3.5820   18.2950 O.2    65  VAL65      -0.2867
     68  CB         8.2950    2.5930   18.4730 C.3    65  VAL65       0.0252
     69  CG1        8.6110    1.5300   17.4210 C.3    65  VAL65       0.0019
     70  CG2        6.9100    2.3470   19.0590 C.3    65  VAL65       0.0019
     71  N         11.1380   -1.8340   12.9790 N.3    80  MET80      -0.1230
     72  CA        10.9630   -1.2960   14.3350 C.3    80  MET80       0.1702
     73  C         10.2680   -2.2900   15.2780 C.2    80  MET80       0.2592
     74  O          9.6460   -3.2440   14.8250 O.2    80  MET80      -0.2718
     75  CB        10.1380   -0.0090   14.2940 C.3    80  MET80       0.0401
     76  CG        10.6040    1.0360   13.2860 C.3    80  MET80       0.0596
     77  SD         9.2450    2.1150   12.8150 S.3    80  MET80      -0.1393
     78  CE         8.4670    1.1600   11.5140 C.3    80  MET80       0.0692
     79  N         10.3650   -2.0400   16.5850 N.am   81  GLU81      -0.1966
     80  CA         9.6370   -2.8120   17.5920 C.3    81  GLU81       0.1733
     81  C          8.1380   -2.8160   17.3070 C.2    81  GLU81       0.2616
     82  O          7.6000   -1.8550   16.7530 O.2    81  GLU81      -0.2715
     83  CB         9.8530   -2.2250   18.9830 C.3    81  GLU81       0.0429
     84  CG        11.2630   -2.3330   19.5360 C.3    81  GLU81       0.1163
     85  CD        11.3990   -1.6360   20.8780 C.2    81  GLU81       0.3649
     86  OE1       10.8740   -0.5080   21.0290 O.co2  81  GLU81      -0.2457
     87  OE2       12.0280   -2.2110   21.7890 O.co2  81  GLU81      -0.2457
     88  N          7.4740   -3.8970   17.7020 N.am   82  MET82      -0.1963
     89  CA         6.0380   -4.0490   17.5110 C.3    82  MET82       0.1736
     90  C          5.2870   -3.6830   18.7940 C.2    82  MET82       0.2616
     91  O          5.6600   -4.1140   19.8800 O.2    82  MET82      -0.2715
     92  CB         5.7250   -5.4910   17.0830 C.3    82  MET82       0.0427
     93  CG         4.2510   -5.8130   16.9260 C.3    82  MET82       0.0599
     94  SD         3.6240   -5.3270   15.3430 S.3    82  MET82      -0.1393
     95  CE         1.8610   -5.1850   15.6920 C.3    82  MET82       0.0692
     96  N          4.2520   -2.8580   18.6600 N.am   83  ALA83      -0.1963
     97  CA         3.3440   -2.5530   19.7650 C.3    83  ALA83       0.1728
     98  C          1.9740   -3.0870   19.3600 C.2    83  ALA83       0.2616
     99  O          1.2460   -2.4350   18.6100 O.2    83  ALA83      -0.2715
    100  CB         3.3020   -1.0550   20.0170 C.3    83  ALA83       0.0334
    101  N          1.6380   -4.2820   19.8410 N.am   84  GLU84      -0.1977
    102  CA         0.5190   -5.0570   19.2810 C.3    84  GLU84       0.1602
    103  C         -0.8780   -4.4540   19.4490 C.2    84  GLU84       0.2287
    104  O         -1.7360   -4.6260   18.5740 O.2    84  GLU84      -0.2864
    105  CB         0.5270   -6.4980   19.8020 C.3    84  GLU84       0.0415
    106  CG         1.7380   -7.3060   19.3690 C.3    84  GLU84       0.1163
    107  CD         1.5620   -8.0070   18.0340 C.2    84  GLU84       0.3649
    108  OE1        2.5140   -8.6960   17.6200 O.co2  84  GLU84      -0.2457
    109  OE2        0.4920   -7.8780   17.3940 O.co2  84  GLU84      -0.2457
    110  N         -1.8090   -1.3830   19.3470 N.3    86  GLY86      -0.1210
    111  CA        -2.0600   -0.3140   18.3960 C.3    86  GLY86       0.1940
    112  C         -2.1950    1.0840   18.9730 C.2    86  GLY86       0.2453
    113  O         -1.8890    1.3130   20.1470 O.2    86  GLY86      -0.2732
    114  N         -2.6520    2.0210   18.1430 N.am   87  PRO87      -0.2728
    115  CA        -2.7320    3.4380   18.5260 C.3    87  PRO87       0.1401
    116  C         -3.6820    3.6880   19.6940 C.2    87  PRO87       0.2269
    117  O         -4.7930    3.1400   19.7490 O.2    87  PRO87      -0.2865
    118  CB        -3.2560    4.1300   17.2640 C.3    87  PRO87       0.0296
    119  CG        -3.1090    3.1510   16.1660 C.3    87  PRO87       0.0237
    120  CD        -3.1210    1.7910   16.7640 C.3    87  PRO87       0.0939
    121  N         -2.8250    9.2930   18.0850 N.3   130  ARG130     -0.1231
    122  CA        -2.7220    8.3510   16.9650 C.3   130  ARG130      0.1694
    123  C         -1.3080    7.7840   16.7720 C.2   130  ARG130      0.2592
    124  O         -1.1410    6.7230   16.1600 O.2   130  ARG130     -0.2718
    125  CB        -3.2250    8.9940   15.6670 C.3   130  ARG130      0.0321
    126  CG        -2.3670   10.1350   15.1600 C.3   130  ARG130      0.0489
    127  CD        -2.8290   10.7400   13.8310 C.3   130  ARG130      0.2205
    128  NE        -1.9960   11.8850   13.4890 N.pl3 130  ARG130     -0.0865
    129  CZ        -2.2130   13.1230   13.9160 C.cat 130  ARG130      0.5346
    130  NH1       -3.2590   13.4000   14.6930 N.pl3 130  ARG130      0.1354
    131  NH2       -1.3840   14.0910   13.5650 N.pl3 130  ARG130      0.1354
    132  N         -0.3070    8.4900   17.3040 N.am  131  ASN131     -0.1974
    133  CA         1.1050    8.1030   17.1640 C.3   131  ASN131      0.1688
    134  C          1.7380    7.5280   18.4270 C.2   131  ASN131      0.2292
    135  O          2.9440    7.2440   18.4590 O.2   131  ASN131     -0.2864
    136  CB         1.9260    9.2810   16.6350 C.3   131  ASN131      0.1181
    137  CG         1.5570    9.6340   15.2160 C.2   131  ASN131      0.2629
    138  OD1        1.2370    8.7520   14.4230 O.2   131  ASN131     -0.2716
    139  ND2        1.5730   10.9240   14.8930 N.am  131  ASN131     -0.0877
    140  N          1.5490    4.2670   20.7730 N.3   133  LEU133     -0.1245
    141  CA         1.1720    2.8870   20.5320 C.3   133  LEU133      0.1561
    142  C          1.2580    2.0880   21.8180 C.2   133  LEU133      0.2260
    143  O          2.1320    2.3310   22.6500 O.2   133  LEU133     -0.2867
    144  CB         2.0740    2.2660   19.4630 C.3   133  LEU133      0.0270
    145  CG         2.0200    2.8650   18.0510 C.3   133  LEU133      0.0019
    146  CD1        3.0760    2.2160   17.2150 C.3   133  LEU133      0.0001
    147  CD2        0.6500    2.6960   17.3930 C.3   133  LEU133      0.0001
    148  N          5.7380    6.7810   18.8850 N.3   143  SER143     -0.1202
    149  CA         6.1740    6.3430   17.5670 C.3   143  SER143      0.2020
    150  C          6.0570    7.4510   16.5050 C.2   143  SER143      0.2618
    151  O          5.7760    8.6140   16.8290 O.2   143  SER143     -0.2717
    152  CB         5.3860    5.1060   17.1340 C.3   143  SER143      0.2103
    153  OG         4.0350    5.4380   16.8790 O.3   143  SER143     -0.2182
    154  N          6.2670    7.0640   15.2430 N.am  144  ASP144     -0.1973
    155  CA         6.2270    7.9570   14.0860 C.3   144  ASP144      0.1709
    156  C          7.1660    9.1580   14.2190 C.2   144  ASP144      0.2293
    157  O          6.7350   10.2650   14.5500 O.2   144  ASP144     -0.2864
    158  CB         4.7900    8.4020   13.7690 C.3   144  ASP144      0.1436
    159  CG         4.6390    8.9190   12.3490 C.2   144  ASP144      0.3671
    160  OD1        5.6570    9.0400   11.6370 O.co2 144  ASP144     -0.2456
    161  OD2        3.5390    9.2370   11.8560 O.co2 144  ASP144     -0.2456
@<TRIPOS>BOND
     1    26    25    2
     2    25    24    1
     3    22    21    2
     4    24    23    1
     5    24    27    1
     6    21    20    1
     7    27    28    1
     8    17    18    1
     9    17    14    1
    10    20    19    1
    11    28    30   ar
    12    28    29   ar
    13    19    15   am
    14    30    32   ar
    15    14    15    1
    16    14    13    1
    17    15    16    2
    18    49    48    2
    19    29    31   ar
    20    48    47    1
    21    32    33   ar
    22    34    35    1
    23    12    11    2
    24    13    11   am
    25    31    33   ar
    26    11    10    1
    27    47    50    1
    28    47    46    1
    29    51    52    1
    30    51    50    1
    31    35    36    1
    32    35    38    1
    33    37    36    2
    34    52    53    1
    35    53    54    1
    36    10     9    1
    37    40    38    1
    38     1     2    1
    39     9     3   am
    40    38    39    1
    41    62    61   ar
    42    55    56    1
    43    59    56    1
    44    59    60    1
    45     3     2    1
    46     3     4    2
    47     2     5    1
    48    61    60    1
    49    61    63   ar
    50    56    57    1
    51     5     6    1
    52    57    58    2
    53    43    44    2
    54    43    42    1
    55    78    77    1
    56     6     7    1
    57     6     8    1
    58   160   159   ar
    59   161   159   ar
    60   159   158    1
    61    42    45    1
    62    42    41    1
    63    77    76    1
    64    71    72    1
    65    76    75    1
    66   128   127    1
    67   128   129    2
    68   131   129    1
    69   158   155    1
    70   127   126    1
    71   129   130    1
    72   155   156    1
    73   155   154    1
    74   156   157    2
    75    75    72    1
    76    72    73    1
    77   138   137    2
    78    74    73    2
    79   139   137   am
    80   126   125    1
    81   137   136    1
    82   154   150   am
    83    73    79   am
    84    94    95    1
    85    94    93    1
    86   125   122    1
    87   124   123    2
    88   119   120    1
    89   119   118    1
    90   150   151    2
    91   150   149    1
    92    79    80    1
    93   136   133    1
    94    82    81    2
    95   120   114    1
    96   123   122    1
    97   123   132   am
    98   153   152    1
    99    93    92    1
   100   122   121    1
   101    92    89    1
   102   152   149    1
   103   133   132    1
   104   133   134    1
   105   146   145    1
   106   118   115    1
   107    81    80    1
   108    81    88   am
   109   147   145    1
   110   109   107   ar
   111    69    68    1
   112    89    88    1
   113    89    90    1
   114   149   148    1
   115    80    83    1
   116   108   107   ar
   117   107   106    1
   118   145   144    1
   119   114   115    1
   120   114   112   am
   121    67    66    2
   122   111   112    1
   123   111   110    1
   124   134   135    2
   125    68    70    1
   126    68    65    1
   127   115   116    1
   128   104   103    2
   129    99    98    2
   130    96    90   am
   131    96    97    1
   132    90    91    2
   133   112   113    2
   134    83    84    1
   135    66    65    1
   136   102   103    1
   137   102   105    1
   138   102   101    1
   139    98    97    1
   140    98   101   am
   141   106   105    1
   142   144   141    1
   143    84    85    1
   144    65    64    1
   145   116   117    2
   146    97   100    1
   147   141   140    1
   148   141   142    1
   149    85    86   ar
   150    85    87   ar
   151   142   143    2
