@<TRIPOS>MOLECULE
tmp/1xbzB00.pdb
 153 143 0 0 0
SMALL
GASTEIGER

@<TRIPOS>ATOM
      1  N         40.9740   10.0880    6.6810 N.3     9  ALA9       -0.1245
      2  CA        42.3260   10.1370    7.2370 C.3     9  ALA9        0.1562
      3  C         43.3230    9.4230    6.3300 C.2     9  ALA9        0.2260
      4  O         43.2090    8.1800    6.1040 O.2     9  ALA9       -0.2867
      5  CB        42.3370    9.5290    8.6100 C.3     9  ALA9        0.0290
      6  N         46.4070    8.0080    6.5900 N.3    11  ASP11      -0.1239
      7  CA        47.4250    7.4520    7.4860 C.3    11  ASP11       0.1674
      8  C         48.3340    6.5070    6.7070 C.2    11  ASP11       0.2266
      9  O         48.4630    5.3490    6.9990 O.2    11  ASP11      -0.2867
     10  CB        46.7680    6.7760    8.6500 C.3    11  ASP11       0.1410
     11  CG        46.1850    7.7870    9.6470 C.2    11  ASP11       0.3668
     12  OD1       46.8850    8.7930    9.9380 O.co2  11  ASP11      -0.2456
     13  OD2       45.0580    7.6370   10.1750 O.co2  11  ASP11      -0.2456
     14  N         42.3470   14.6480    5.5650 N.3    33  GLU33      -0.1245
     15  CA        43.3140   14.6720    6.6330 C.3    33  GLU33       0.1567
     16  C         44.6710   14.0810    6.1960 C.2    33  GLU33       0.2260
     17  O         44.7550   12.9680    5.6590 O.2    33  GLU33      -0.2867
     18  CB        42.8140   13.9980    7.8920 C.3    33  GLU33       0.0388
     19  CG        43.9340   13.4000    8.7230 C.3    33  GLU33       0.1160
     20  CD        43.4700   12.6170    9.9030 C.2    33  GLU33       0.3649
     21  OE1       42.2450   12.6620   10.2630 O.co2  33  GLU33      -0.2457
     22  OE2       44.3210   11.9210   10.4940 O.co2  33  GLU33      -0.2457
     23  N         48.7660   11.7300   10.9240 N.3    36  THR36      -0.1218
     24  CA        50.0400   11.7680   11.6640 C.3    36  THR36       0.1862
     25  C         51.0770   10.8600   11.0260 C.2    36  THR36       0.2287
     26  O         52.2260   11.2270   10.9030 O.2    36  THR36      -0.2866
     27  CB        49.8210   11.3980   13.1230 C.3    36  THR36       0.1770
     28  OG1       48.6220   12.0190   13.6210 O.3    36  THR36      -0.2211
     29  CG2       50.9730   11.9490   13.9690 C.3    36  THR36       0.0375
     30  N         47.1480   16.4870   10.7710 N.3    62  ASP62      -0.1239
     31  CA        46.9660   15.8400   12.0730 C.3    62  ASP62       0.1674
     32  C         48.3210   15.7260   12.7800 C.2    62  ASP62       0.2266
     33  O         48.8570   14.6420   12.9930 O.2    62  ASP62      -0.2867
     34  CB        46.2860   14.4690   11.9110 C.3    62  ASP62       0.1410
     35  CG        45.6930   13.9460   13.1940 C.2    62  ASP62       0.3668
     36  OD1       45.7050   14.6450   14.2620 O.co2  62  ASP62      -0.2456
     37  OD2       45.2440   12.7910   13.2370 O.co2  62  ASP62      -0.2456
     38  N         49.1580   16.7190   15.8660 N.3    64  LYS64      -0.1245
     39  CA        49.0590   16.3550   17.2990 C.3    64  LYS64       0.1561
     40  C         50.1700   17.0620   18.0650 C.2    64  LYS64       0.2260
     41  O         50.9050   16.4520   18.8340 O.2    64  LYS64      -0.2867
     42  CB        49.0670   14.8420   17.5420 C.3    64  LYS64       0.0271
     43  CG        47.8110   14.1610   16.9110 C.3    64  LYS64       0.0035
     44  CD        47.8220   12.6630   16.9850 C.3    64  LYS64       0.0206
     45  CE        46.5830   12.0880   16.1590 C.3    64  LYS64       0.1093
     46  NZ        46.7220   10.6100   16.1000 N.3    64  LYS64      -0.1314
     47  N         43.0360   12.2700   22.2880 N.3   114  THR114     -0.1218
     48  CA        43.5000   10.8790   22.3680 C.3   114  THR114      0.1862
     49  C         44.1900   10.6560   23.7040 C.2   114  THR114      0.2287
     50  O         45.0930   11.4050   24.0610 O.2   114  THR114     -0.2866
     51  CB        44.4590   10.5120   21.2260 C.3   114  THR114      0.1770
     52  OG1       43.8090   10.6730   19.9570 O.3   114  THR114     -0.2211
     53  CG2       44.7800    9.0130   21.2700 C.3   114  THR114      0.0375
     54  N         38.4730   10.9250   20.3410 N.3   136  HIS136     -0.1226
     55  CA        39.2340    9.8830   19.7090 C.3   136  HIS136      0.1752
     56  C         39.1680    8.6780   20.5680 C.2   136  HIS136      0.2596
     57  O         39.5140    8.7290   21.7570 O.2   136  HIS136     -0.2718
     58  CB        40.7090   10.2760   19.6610 C.3   136  HIS136      0.0759
     59  CG        41.2410   10.4650   18.2990 C.ar  136  HIS136      0.0818
     60  ND1       41.6830   11.6880   17.8410 N.ar  136  HIS136     -0.2268
     61  CD2       41.4330    9.5860   17.2970 C.ar  136  HIS136      0.1154
     62  CE1       42.1190   11.5470   16.6040 C.ar  136  HIS136      0.1986
     63  NE2       41.9800   10.2810   16.2540 N.ar  136  HIS136     -0.2212
     64  N         38.7410    7.5760   19.9940 N.am  137  ARG137     -0.1966
     65  CA        39.0930    6.2990   20.5770 C.3   137  ARG137      0.1729
     66  C         40.4720    5.9290   20.0190 C.2   137  ARG137      0.2617
     67  O         40.6770    5.8880   18.8000 O.2   137  ARG137     -0.2715
     68  CB        38.0700    5.2530   20.2010 C.3   137  ARG137      0.0348
     69  CG        38.5420    3.8600   20.5190 C.3   137  ARG137      0.0492
     70  CD        37.4480    2.8340   20.2500 C.3   137  ARG137      0.2205
     71  NE        37.1460    2.7260   18.8220 N.pl3 137  ARG137     -0.0865
     72  CZ        36.4720    1.7120   18.2670 C.cat 137  ARG137      0.5346
     73  NH1       36.0470    0.6990   19.0150 N.pl3 137  ARG137      0.1354
     74  NH2       36.2300    1.6940   16.9610 N.pl3 137  ARG137      0.1354
     75  N         41.4480    5.7260   20.8960 N.am  138  SER138     -0.1936
     76  CA        42.7860    5.3580   20.4470 C.3   138  SER138      0.2055
     77  C         42.7410    4.0620   19.5800 C.2   138  SER138      0.2642
     78  O         42.0610    3.0810   19.9340 O.2   138  SER138     -0.2714
     79  CB        43.7260    5.1910   21.6490 C.3   138  SER138      0.2130
     80  OG        44.7930    4.3100   21.3610 O.3   138  SER138     -0.2179
     81  N         43.4680    4.0780   18.4570 N.am  139  VAL139     -0.1977
     82  CA        43.6020    2.9060   17.6020 C.3   139  VAL139      0.1596
     83  C         44.2400    1.7260   18.3260 C.2   139  VAL139      0.2287
     84  O         43.9260    0.5690   18.0300 O.2   139  VAL139     -0.2864
     85  CB        44.4060    3.1960   16.3050 C.3   139  VAL139      0.0276
     86  CG1       45.8690    3.5130   16.5700 C.3   139  VAL139      0.0022
     87  CG2       44.2820    2.0220   15.3260 C.3   139  VAL139      0.0022
     88  N         36.1700    9.8540   16.0390 N.3   169  ALA169     -0.1231
     89  CA        37.1840    9.1150   15.2920 C.3   169  ALA169      0.1694
     90  C         37.7310    7.9560   16.0820 C.2   169  ALA169      0.2593
     91  O         37.6930    7.9700   17.3180 O.2   169  ALA169     -0.2718
     92  CB        38.3090   10.0400   14.9230 C.3   169  ALA169      0.0304
     93  N         38.2070    6.9530   15.3560 N.am  170  GLY170     -0.1942
     94  CA        38.9880    5.8640   15.9130 C.3   170  GLY170      0.2014
     95  C         38.3520    4.5630   15.5630 C.2   170  GLY170      0.2639
     96  O         37.4750    4.0460   16.2740 O.2   170  GLY170     -0.2714
     97  N         38.7820    4.0170   14.4330 N.am  171  GLY171     -0.1939
     98  CA        38.3150    2.7260   13.9670 C.3   171  GLY171      0.2014
     99  C         36.8580    2.7380   13.5700 C.2   171  GLY171      0.2638
    100  O         36.1630    1.7220   13.5860 O.2   171  GLY171     -0.2714
    101  N         36.3730    3.9070   13.1880 N.am  172  LEU172     -0.1977
    102  CA        34.9750    4.0410   12.8680 C.3   172  LEU172      0.1596
    103  C         34.5610    3.1490   11.7150 C.2   172  LEU172      0.2287
    104  O         35.2010    3.1330   10.6630 O.2   172  LEU172     -0.2864
    105  CB        34.6770    5.4750   12.4910 C.3   172  LEU172      0.0297
    106  CG        33.2130    5.8100   12.4100 C.3   172  LEU172      0.0022
    107  CD1       32.6100    5.8590   13.8420 C.3   172  LEU172      0.0001
    108  CD2       33.0570    7.1430   11.7010 C.3   172  LEU172      0.0001
    109  N         35.4500   10.8860   11.2180 N.3   189  ILE189     -0.1231
    110  CA        36.6710   10.5110   10.4800 C.3   189  ILE189      0.1692
    111  C         36.6280    9.0180   10.1670 C.2   189  ILE189      0.2592
    112  O         36.3200    8.2110   11.0380 O.2   189  ILE189     -0.2718
    113  CB        37.9440   10.8180   11.2380 C.3   189  ILE189      0.0266
    114  CG1       37.9980   12.2670   11.7030 C.3   189  ILE189      0.0019
    115  CG2       39.1510   10.5370   10.3410 C.3   189  ILE189      0.0020
    116  CD1       39.2670   12.6320   12.5620 C.3   189  ILE189      0.0001
    117  N         36.9210    8.6690    8.9190 N.am  190  ALA190     -0.1966
    118  CA        37.1480    7.2790    8.5160 C.3   190  ALA190      0.1728
    119  C         38.4950    7.1840    7.7810 C.2   190  ALA190      0.2617
    120  O         38.7100    7.8570    6.7970 O.2   190  ALA190     -0.2715
    121  CB        36.0030    6.7500    7.6340 C.3   190  ALA190      0.0334
    122  N         39.4050    6.4070    8.3440 N.am  191  GLY191     -0.1940
    123  CA        40.6670    6.0650    7.7550 C.3   191  GLY191      0.2014
    124  C         40.5340    4.6950    7.0830 C.2   191  GLY191      0.2639
    125  O         40.1640    4.6090    5.9120 O.2   191  GLY191     -0.2714
    126  N         40.8460    3.6360    7.8280 N.am  192  ARG192     -0.1963
    127  CA        40.8610    2.2850    7.2970 C.3   192  ARG192      0.1729
    128  C         39.5570    1.8850    6.6440 C.2   192  ARG192      0.2616
    129  O         39.5860    1.1870    5.6360 O.2   192  ARG192     -0.2715
    130  CB        41.1720    1.2780    8.4010 C.3   192  ARG192      0.0348
    131  CG        42.6330    1.3330    8.8290 C.3   192  ARG192      0.0492
    132  CD        42.8910    0.6700   10.1910 C.3   192  ARG192      0.2205
    133  NE        42.3160    1.4710   11.2660 N.pl3 192  ARG192     -0.0865
    134  CZ        42.1550    1.0860   12.5350 C.cat 192  ARG192      0.5346
    135  NH1       41.6300    1.9380   13.3880 N.pl3 192  ARG192      0.1354
    136  NH2       42.5440   -0.1090   12.9720 N.pl3 192  ARG192      0.1354
    137  N         38.4190    2.3150    7.1990 N.am  193  SER193     -0.1950
    138  CA        37.1160    1.8460    6.6890 C.3   193  SER193      0.1924
    139  C         36.7990    2.3810    5.2770 C.2   193  SER193      0.2314
    140  O         35.9770    1.8110    4.5680 O.2   193  SER193     -0.2863
    141  CB        36.0010    2.1170    7.6950 C.3   193  SER193      0.2116
    142  OG        35.8310    3.5200    7.8970 O.3   193  SER193     -0.2180
    143  N         39.9220    3.6050    3.2270 N.3   195  ARG195     -0.1245
    144  CA        41.1340    3.3250    2.4280 C.3   195  ARG195      0.1563
    145  C         41.2160    1.8460    2.0190 C.2   195  ARG195      0.2260
    146  O         41.6500    1.5250    0.9270 O.2   195  ARG195     -0.2867
    147  CB        42.3820    3.6870    3.2100 C.3   195  ARG195      0.0307
    148  CG        42.5620    5.2140    3.5140 C.3   195  ARG195      0.0489
    149  CD        44.0220    5.5750    3.7770 C.3   195  ARG195      0.2205
    150  NE        44.6340    4.5460    4.6360 N.pl3 195  ARG195     -0.0865
    151  CZ        44.4910    4.4950    5.9580 C.cat 195  ARG195      0.5346
    152  NH1       43.8300    5.4560    6.5970 N.pl3 195  ARG195      0.1354
    153  NH2       45.0200    3.4990    6.6470 N.pl3 195  ARG195      0.1354
@<TRIPOS>BOND
     1   146   145    2
     2   145   144    1
     3   144   147    1
     4   144   143    1
     5   147   148    1
     6   148   149    1
     7   149   150    1
     8   140   139    2
     9   150   151    2
    10   139   138    1
    11    14    15    1
    12   129   128    2
    13    17    16    2
    14   125   124    2
    15   151   152    1
    16   151   153    1
    17     4     3    2
    18    16    15    1
    19     3     2    1
    20     6     7    1
    21    15    18    1
    22   128   137   am
    23   128   127    1
    24     1     2    1
    25   138   137    1
    26   138   141    1
    27     8     9    2
    28     8     7    1
    29   120   119    2
    30   124   123    1
    31   124   126   am
    32     2     5    1
    33   127   126    1
    34   127   130    1
    35     7    10    1
    36   121   118    1
    37   141   142    1
    38   123   122    1
    39   119   122   am
    40   119   118    1
    41    18    19    1
    42   130   131    1
    43   118   117    1
    44    10    11    1
    45    19    20    1
    46   131   132    1
    47   117   111   am
    48    11    12   ar
    49    11    13   ar
    50    20    21   ar
    51    20    22   ar
    52   111   110    1
    53   111   112    2
    54   132   133    1
    55   115   113    1
    56   110   109    1
    57   110   113    1
    58   104   103    2
    59    30    31    1
    60    26    25    2
    61    23    24    1
    62    25    24    1
    63   113   114    1
    64   133   134    2
    65    24    27    1
    66   108   106    1
    67   114   116    1
    68   103   102    1
    69    34    31    1
    70    34    35    1
    71    31    32    1
    72   106   105    1
    73   106   107    1
    74   105   102    1
    75   134   136    1
    76   134   135    1
    77    32    33    2
    78   102   101    1
    79    27    28    1
    80    27    29    1
    81   101    99   am
    82    35    37   ar
    83    35    36   ar
    84    99   100    2
    85    99    98    1
    86    98    97    1
    87    97    95   am
    88    92    89    1
    89    89    88    1
    90    89    90    1
    91    87    85    1
    92    93    94    1
    93    93    90   am
    94    95    94    1
    95    95    96    2
    96    38    39    1
    97    90    91    2
    98    46    45    1
    99    45    44    1
   100    63    62   ar
   101    63    61   ar
   102    85    86    1
   103    85    82    1
   104    62    60   ar
   105    43    44    1
   106    43    42    1
   107    74    72    1
   108    61    59   ar
   109    39    42    1
   110    39    40    1
   111    82    83    1
   112    82    81    1
   113    60    59   ar
   114    84    83    2
   115    40    41    2
   116    72    71    2
   117    72    73    1
   118    59    58    1
   119    81    77   am
   120    67    66    2
   121    71    70    1
   122    77    78    2
   123    77    76    1
   124    58    55    1
   125    55    54    1
   126    55    56    1
   127    52    51    1
   128    64    56   am
   129    64    65    1
   130    66    65    1
   131    66    75   am
   132    68    69    1
   133    68    65    1
   134    70    69    1
   135    76    75    1
   136    76    79    1
   137    56    57    2
   138    51    53    1
   139    51    48    1
   140    80    79    1
   141    47    48    1
   142    48    49    1
   143    49    50    2
