@<TRIPOS>MOLECULE
tmp/1xc6A00.pdb
 133 125 0 0 0
SMALL
GASTEIGER

@<TRIPOS>ATOM
      1  N         50.8900   17.3490  123.6380 N.3   273  PHE273     -0.1227
      2  CA        50.1570   16.8720  124.8050 C.3   273  PHE273      0.1736
      3  C         50.6180   15.5290  125.3740 C.2   273  PHE273      0.2595
      4  O         50.2680   15.1780  126.5010 O.2   273  PHE273     -0.2718
      5  CB        48.6570   16.8440  124.4950 C.3   273  PHE273      0.0547
      6  CG        48.0230   18.2140  124.4700 C.ar  273  PHE273     -0.0202
      7  CD1       47.9480   18.9820  125.6330 C.ar  273  PHE273     -0.0042
      8  CD2       47.5070   18.7390  123.2860 C.ar  273  PHE273     -0.0042
      9  CE1       47.3670   20.2520  125.6200 C.ar  273  PHE273     -0.0003
     10  CE2       46.9230   20.0130  123.2590 C.ar  273  PHE273     -0.0003
     11  CZ        46.8520   20.7700  124.4280 C.ar  273  PHE273     -0.0000
     12  N         51.4080   14.7820  124.6090 N.am  274  ALA274     -0.1966
     13  CA        51.9080   13.5040  125.0990 C.3   274  ALA274      0.1728
     14  C         52.8000   13.7980  126.3000 C.2   274  ALA274      0.2616
     15  O         52.8000   13.0580  127.2880 O.2   274  ALA274     -0.2715
     16  CB        52.7080   12.7870  124.0100 C.3   274  ALA274      0.0334
     17  N         53.5580   14.8870  126.2110 N.am  275  LYS275     -0.1977
     18  CA        54.4450   15.2780  127.2980 C.3   275  LYS275      0.1596
     19  C         53.6640   15.8260  128.4830 C.2   275  LYS275      0.2287
     20  O         54.1000   15.7140  129.6260 O.2   275  LYS275     -0.2864
     21  CB        55.4690   16.3110  126.8220 C.3   275  LYS275      0.0298
     22  CG        56.6430   15.6910  126.0860 C.3   275  LYS275      0.0038
     23  CD        57.7530   16.6980  125.8670 C.3   275  LYS275      0.0206
     24  CE        59.0220   16.0110  125.3900 C.3   275  LYS275      0.1093
     25  NZ        58.7830   15.2160  124.1580 N.3   275  LYS275     -0.1314
     26  N         44.1880   20.9960  118.9680 N.3   322  SER322     -0.1217
     27  CA        43.9610   19.9940  120.0010 C.3   322  SER322      0.1889
     28  C         43.8130   20.5530  121.4200 C.2   322  SER322      0.2288
     29  O         44.4540   21.5410  121.7880 O.2   322  SER322     -0.2866
     30  CB        45.1100   18.9810  119.9900 C.3   322  SER322      0.2089
     31  OG        45.0200   18.0880  121.0900 O.3   322  SER322     -0.2183
     32  N         43.6350   18.0490  123.9300 N.3   324  ASP324     -0.1239
     33  CA        43.7660   16.7500  124.5980 C.3   324  ASP324      0.1674
     34  C         44.0410   16.9790  126.0830 C.2   324  ASP324      0.2266
     35  O         43.5740   16.2220  126.9410 O.2   324  ASP324     -0.2867
     36  CB        44.9160   15.9300  123.9960 C.3   324  ASP324      0.1410
     37  CG        45.1280   14.6070  124.7250 C.2   324  ASP324      0.3668
     38  OD1       44.4000   13.6340  124.4220 O.co2 324  ASP324     -0.2456
     39  OD2       46.0100   14.5490  125.6180 O.co2 324  ASP324     -0.2456
     40  N         41.5460   10.6380  126.7720 N.3   330  SER330     -0.1202
     41  CA        42.1940   11.3460  125.6670 C.3   330  SER330      0.2020
     42  C         41.2500   12.0600  124.7060 C.2   330  SER330      0.2619
     43  O         40.0310   11.8720  124.7450 O.2   330  SER330     -0.2717
     44  CB        43.0840   10.3830  124.8690 C.3   330  SER330      0.2103
     45  OG        42.3300    9.6850  123.8870 O.3   330  SER330     -0.2182
     46  N         41.8350   12.8810  123.8350 N.am  331  GLU331     -0.1965
     47  CA        41.0750   13.6410  122.8480 C.3   331  GLU331      0.1733
     48  C         40.2080   12.7250  121.9880 C.2   331  GLU331      0.2617
     49  O         39.1040   13.1010  121.5940 O.2   331  GLU331     -0.2715
     50  CB        42.0300   14.4570  121.9640 C.3   331  GLU331      0.0429
     51  CG        41.3500   15.2720  120.8590 C.3   331  GLU331      0.1163
     52  CD        42.2950   16.2750  120.2020 C.2   331  GLU331      0.3649
     53  OE1       43.5280   16.0750  120.2700 O.co2 331  GLU331     -0.2457
     54  OE2       41.8040   17.2560  119.6030 O.co2 331  GLU331     -0.2457
     55  N         40.7040   11.5220  121.7060 N.am  332  SER332     -0.1950
     56  CA        39.9510   10.5650  120.8990 C.3   332  SER332      0.1924
     57  C         39.0420    9.6970  121.7720 C.2   332  SER332      0.2314
     58  O         38.4820    8.7000  121.3040 O.2   332  SER332     -0.2863
     59  CB        40.9080    9.6790  120.0970 C.3   332  SER332      0.2116
     60  OG        41.8190    9.0030  120.9450 O.3   332  SER332     -0.2180
     61  N         39.8800    7.7630  124.2890 N.3   334  ASN334     -0.1240
     62  CA        40.3990    6.5090  124.8230 C.3   334  ASN334      0.1653
     63  C         40.8670    6.6390  126.2660 C.2   334  ASN334      0.2266
     64  O         41.1430    7.7370  126.7530 O.2   334  ASN334     -0.2867
     65  CB        41.5090    5.9180  123.9290 C.3   334  ASN334      0.1155
     66  CG        42.8160    6.6950  123.9800 C.2   334  ASN334      0.2627
     67  OD1       43.3360    6.9990  125.0570 O.2   334  ASN334     -0.2716
     68  ND2       43.3580    6.9810  122.7960 N.am  334  ASN334     -0.0877
     69  N         43.4810    4.5420  127.7300 N.3   336  THR336     -0.1203
     70  CA        44.6210    3.6430  127.8250 C.3   336  THR336      0.1994
     71  C         45.6810    4.1650  128.7920 C.2   336  THR336      0.2617
     72  O         46.4380    3.3850  129.3640 O.2   336  THR336     -0.2717
     73  CB        45.2900    3.4300  126.4430 C.3   336  THR336      0.1784
     74  OG1       45.6500    4.6980  125.8820 O.3   336  THR336     -0.2211
     75  CG2       44.3440    2.7090  125.4950 C.3   336  THR336      0.0376
     76  N         45.7360    5.4830  128.9770 N.am  337  ARG337     -0.1979
     77  CA        46.7300    6.0790  129.8710 C.3   337  ARG337      0.1597
     78  C         46.6130    5.5250  131.2870 C.2   337  ARG337      0.2287
     79  O         45.5180    5.4380  131.8360 O.2   337  ARG337     -0.2864
     80  CB        46.5850    7.6080  129.8750 C.3   337  ARG337      0.0334
     81  CG        47.0010    8.2570  128.5500 C.3   337  ARG337      0.0492
     82  CD        46.6360    9.7410  128.4760 C.3   337  ARG337      0.2205
     83  NE        47.1340   10.3440  127.2410 N.pl3 337  ARG337     -0.0865
     84  CZ        46.6990   11.4890  126.7210 C.cat 337  ARG337      0.5346
     85  NH1       45.7370   12.1860  127.3160 N.pl3 337  ARG337      0.1354
     86  NH2       47.2390   11.9440  125.5990 N.pl3 337  ARG337      0.1354
     87  N         39.6890   -4.2980  124.4310 N.3   585  ASN585     -0.1240
     88  CA        40.6930   -3.9860  123.4210 C.3   585  ASN585      0.1653
     89  C         41.7010   -5.1310  123.3460 C.2   585  ASN585      0.2266
     90  O         42.8000   -4.9750  122.8150 O.2   585  ASN585     -0.2867
     91  CB        41.3880   -2.6550  123.7420 C.3   585  ASN585      0.1155
     92  CG        42.3030   -2.7370  124.9460 C.2   585  ASN585      0.2627
     93  OD1       42.1480   -3.6020  125.8100 O.2   585  ASN585     -0.2716
     94  ND2       43.2550   -1.8090  125.0010 N.am  585  ASN585     -0.0877
     95  N         38.9740    5.0750  116.6850 N.3   870  PRO870     -0.2116
     96  CA        39.4730    6.4490  116.5500 C.3   870  PRO870      0.1372
     97  C         40.1990    6.6620  115.2210 C.2   870  PRO870      0.2244
     98  O         41.0900    5.8900  114.8670 O.2   870  PRO870     -0.2868
     99  CB        40.4310    6.5940  117.7350 C.3   870  PRO870      0.0268
    100  CG        39.9380    5.5620  118.7260 C.3   870  PRO870      0.0207
    101  CD        39.6190    4.4000  117.8240 C.3   870  PRO870      0.0892
    102  N         42.3820    9.4290  112.7010 N.3   872  TYR872     -0.1241
    103  CA        43.2280   10.6250  112.7280 C.3   872  TYR872      0.1605
    104  C         43.7660   10.9820  111.3400 C.2   872  TYR872      0.2264
    105  O         44.0970   10.0960  110.5500 O.2   872  TYR872     -0.2867
    106  CB        44.4660   10.4160  113.6160 C.3   872  TYR872      0.0534
    107  CG        44.2430   10.1790  115.0930 C.ar  872  TYR872     -0.0201
    108  CD1       43.7250    8.9710  115.5640 C.ar  872  TYR872     -0.0009
    109  CD2       44.6240   11.1430  116.0300 C.ar  872  TYR872     -0.0009
    110  CE1       43.6000    8.7250  116.9360 C.ar  872  TYR872      0.0417
    111  CE2       44.5040   10.9110  117.4000 C.ar  872  TYR872      0.0417
    112  CZ        43.9950    9.7000  117.8460 C.ar  872  TYR872      0.1957
    113  OH        43.9080    9.4640  119.2020 O.3   872  TYR872     -0.2866
    114  N         49.0530   15.3220  114.0140 N.3   908  SER908     -0.1217
    115  CA        47.9920   14.3140  114.0240 C.3   908  SER908      0.1889
    116  C         46.6730   14.9230  114.5150 C.2   908  SER908      0.2288
    117  O         46.5800   15.3940  115.6510 O.2   908  SER908     -0.2866
    118  CB        48.4120   13.1480  114.9280 C.3   908  SER908      0.2089
    119  OG        47.4710   12.0910  114.8820 O.3   908  SER908     -0.2183
    120  N         43.5090    3.9620  115.1900 N.3   946  THR946     -0.1203
    121  CA        44.2100    3.3710  116.3170 C.3   946  THR946      0.1994
    122  C         43.4150    2.1190  116.7030 C.2   946  THR946      0.2618
    123  O         42.4260    1.7900  116.0530 O.2   946  THR946     -0.2717
    124  CB        44.3250    4.3510  117.5210 C.3   946  THR946      0.1784
    125  OG1       43.0410    4.9020  117.8320 O.3   946  THR946     -0.2211
    126  CG2       45.2950    5.4760  117.1950 C.3   946  THR946      0.0376
    127  N         43.8530    1.4220  117.7440 N.am  947  THR947     -0.1952
    128  CA        43.2070    0.1880  118.1940 C.3   947  THR947      0.1897
    129  C         41.6780    0.1550  118.1780 C.2   947  THR947      0.2313
    130  O         41.0230    0.9300  118.8710 O.2   947  THR947     -0.2863
    131  CB        43.6520   -0.1750  119.6270 C.3   947  THR947      0.1794
    132  OG1       45.0820   -0.1810  119.6960 O.3   947  THR947     -0.2208
    133  CG2       43.1240   -1.5560  120.0160 C.3   947  THR947      0.0378
@<TRIPOS>BOND
     1   105   104    2
     2   104   103    1
     3   102   103    1
     4   103   106    1
     5   106   107    1
     6   114   115    1
     7   115   116    1
     8   115   118    1
     9   116   117    2
    10    98    97    2
    11   119   118    1
    12   107   108   ar
    13   107   109   ar
    14   120   121    1
    15    97    96    1
    16   108   110   ar
    17   109   111   ar
    18   123   122    2
    19   121   122    1
    20   121   124    1
    21    96    95    1
    22    96    99    1
    23    95   101    1
    24   122   127   am
    25   110   112   ar
    26   126   124    1
    27   111   112   ar
    28   124   125    1
    29    99   100    1
    30   127   128    1
    31   101   100    1
    32   112   113    1
    33   129   128    1
    34   129   130    2
    35   128   131    1
    36    26    27    1
    37    54    52   ar
    38   131   132    1
    39   131   133    1
    40    30    27    1
    41    30    31    1
    42    27    28    1
    43    59    56    1
    44    59    60    1
    45    52    53   ar
    46    52    51    1
    47    51    50    1
    48    56    55    1
    49    56    57    1
    50    58    57    2
    51    28    29    2
    52    49    48    2
    53    55    48   am
    54    50    47    1
    55    48    47    1
    56    68    66   am
    57    90    89    2
    58    47    46    1
    59    10     8   ar
    60    10    11   ar
    61     8     6   ar
    62    89    88    1
    63    88    91    1
    64    88    87    1
    65     1     2    1
    66    91    92    1
    67    46    42   am
    68    45    44    1
    69    65    66    1
    70    65    62    1
    71    32    33    1
    72    66    67    2
    73    36    33    1
    74    36    37    1
    75    16    13    1
    76    25    24    1
    77    61    62    1
    78    38    37   ar
    79    11     9   ar
    80     6     5    1
    81     6     7   ar
    82     5     2    1
    83    33    34    1
    84    12    13    1
    85    12     3   am
    86    42    43    2
    87    42    41    1
    88    37    39   ar
    89     2     3    1
    90    62    63    1
    91    44    41    1
    92    92    94   am
    93    92    93    2
    94    13    14    1
    95     3     4    2
    96    24    23    1
    97    75    73    1
    98    86    84    1
    99     9     7   ar
   100    41    40    1
   101    23    22    1
   102    74    73    1
   103    34    35    2
   104    22    21    1
   105    17    14   am
   106    17    18    1
   107    63    64    2
   108    14    15    2
   109    73    70    1
   110    84    83    2
   111    84    85    1
   112    21    18    1
   113    83    82    1
   114    18    19    1
   115    69    70    1
   116    70    71    1
   117    82    81    1
   118    19    20    2
   119    81    80    1
   120    71    76   am
   121    71    72    2
   122    76    77    1
   123    77    80    1
   124    77    78    1
   125    78    79    2
