@<TRIPOS>MOLECULE
tmp/1xc6A05.pdb
 171 169 0 0 0
SMALL
GASTEIGER

@<TRIPOS>ATOM
      1  N         53.8740   25.9130  118.8650 N.3   269  GLY269     -0.1210
      2  CA        55.3080   25.7810  119.0560 C.3   269  GLY269      0.1956
      3  C         55.6170   25.1200  120.3900 C.2   269  GLY269      0.2612
      4  O         56.7470   25.1860  120.8800 O.2   269  GLY269     -0.2717
      5  N         54.6030   24.4860  120.9790 N.am  270  GLY270     -0.1942
      6  CA        54.7650   23.8130  122.2610 C.3   270  GLY270      0.2014
      7  C         55.4300   22.4490  122.1660 C.2   270  GLY270      0.2638
      8  O         56.0430   22.1230  121.1510 O.2   270  GLY270     -0.2714
      9  N         55.3010   21.6440  123.2170 N.am  271  VAL271     -0.1977
     10  CA        55.9260   20.3230  123.2470 C.3   271  VAL271      0.1596
     11  C         55.0200   19.1360  122.9330 C.2   271  VAL271      0.2287
     12  O         55.4980   18.0090  122.8310 O.2   271  VAL271     -0.2864
     13  CB        56.6000   20.0630  124.6200 C.3   271  VAL271      0.0276
     14  CG1       57.6780   21.1120  124.8750 C.3   271  VAL271      0.0022
     15  CG2       55.5610   20.0940  125.7370 C.3   271  VAL271      0.0022
     16  N         54.8670   37.1370  106.0170 N.3   730  TRP730     -0.1241
     17  CA        55.3810   37.0320  107.3750 C.3   730  TRP730      0.1605
     18  C         54.8540   35.6350  107.7120 C.2   730  TRP730      0.2264
     19  O         53.6460   35.4480  107.8470 O.2   730  TRP730     -0.2867
     20  CB        54.7550   38.0700  108.3130 C.3   730  TRP730      0.0550
     21  CG        54.9340   37.7150  109.7720 C.ar  730  TRP730      0.0003
     22  CD1       53.9430   37.5050  110.6910 C.ar  730  TRP730      0.0946
     23  CD2       56.1730   37.4900  110.4610 C.ar  730  TRP730      0.0152
     24  NE1       54.4870   37.1600  111.9080 N.ar  730  TRP730     -0.2442
     25  CE2       55.8540   37.1440  111.7950 C.ar  730  TRP730      0.0810
     26  CE3       57.5230   37.5470  110.0820 C.ar  730  TRP730      0.0012
     27  CZ2       56.8350   36.8540  112.7550 C.ar  730  TRP730      0.0191
     28  CZ3       58.5020   37.2570  111.0380 C.ar  730  TRP730      0.0001
     29  CH2       58.1490   36.9160  112.3590 C.ar  730  TRP730      0.0015
     30  N         55.7590   33.0730  114.0250 N.3   733  THR733     -0.1203
     31  CA        56.5590   32.3190  114.9870 C.3   733  THR733      0.1994
     32  C         55.7050   32.0990  116.2280 C.2   733  THR733      0.2619
     33  O         54.6680   32.7440  116.4030 O.2   733  THR733     -0.2717
     34  CB        57.8340   33.0670  115.4390 C.3   733  THR733      0.1784
     35  OG1       57.4750   34.0940  116.3710 O.3   733  THR733     -0.2211
     36  CG2       58.5570   33.6830  114.2440 C.3   733  THR733      0.0376
     37  N         56.1560   31.1990  117.0910 N.am  734  SER734     -0.1937
     38  CA        55.4410   30.8820  118.3170 C.3   734  SER734      0.2055
     39  C         55.4260   32.0130  119.3470 C.2   734  SER734      0.2643
     40  O         54.7090   31.9230  120.3440 O.2   734  SER734     -0.2714
     41  CB        56.0400   29.6240  118.9520 C.3   734  SER734      0.2130
     42  OG        57.4080   29.8210  119.2620 O.3   734  SER734     -0.2179
     43  N         56.2080   33.0700  119.1310 N.am  735  ILE735     -0.1963
     44  CA        56.2170   34.1760  120.0920 C.3   735  ILE735      0.1727
     45  C         55.7510   35.5230  119.5350 C.2   735  ILE735      0.2616
     46  O         55.8070   36.5330  120.2340 O.2   735  ILE735     -0.2715
     47  CB        57.6190   34.3880  120.7360 C.3   735  ILE735      0.0290
     48  CG1       58.6390   34.8040  119.6700 C.3   735  ILE735      0.0022
     49  CG2       58.0670   33.1180  121.4530 C.3   735  ILE735      0.0023
     50  CD1       59.9920   35.2180  120.2540 C.3   735  ILE735      0.0001
     51  N         55.2850   35.5520  118.2910 N.am  736  ASN736     -0.1972
     52  CA        54.8260   36.8120  117.7040 C.3   736  ASN736      0.1688
     53  C         53.3190   36.8600  117.4830 C.2   736  ASN736      0.2292
     54  O         52.7510   35.9420  116.8940 O.2   736  ASN736     -0.2864
     55  CB        55.5010   37.0620  116.3480 C.3   736  ASN736      0.1181
     56  CG        56.9800   37.3620  116.4680 C.2   736  ASN736      0.2629
     57  OD1       57.8230   36.4860  116.2940 O.2   736  ASN736     -0.2716
     58  ND2       57.3010   38.6100  116.7670 N.am  736  ASN736     -0.0877
     59  N         53.5820   41.9210  113.7110 N.3   739  ASN739     -0.1240
     60  CA        54.8450   42.0570  112.9790 C.3   739  ASN739      0.1653
     61  C         54.9570   43.4120  112.2740 C.2   739  ASN739      0.2266
     62  O         53.9840   43.9030  111.7010 O.2   739  ASN739     -0.2867
     63  CB        54.9640   40.9400  111.9280 C.3   739  ASN739      0.1155
     64  CG        56.3270   40.9160  111.2330 C.2   739  ASN739      0.2627
     65  OD1       57.3230   40.4840  111.8110 O.2   739  ASN739     -0.2716
     66  ND2       56.3700   41.3830  109.9880 N.am  739  ASN739     -0.0877
     67  N         56.1840   15.5170  108.6080 N.3   877  ASN877     -0.1240
     68  CA        57.0820   16.6300  108.9220 C.3   877  ASN877      0.1653
     69  C         58.4660   16.0700  109.2460 C.2   877  ASN877      0.2266
     70  O         58.9800   16.2520  110.3470 O.2   877  ASN877     -0.2867
     71  CB        56.5520   17.4330  110.1200 C.3   877  ASN877      0.1155
     72  CG        57.3540   18.7060  110.3700 C.2   877  ASN877      0.2627
     73  OD1       57.7940   19.3570  109.4230 O.2   877  ASN877     -0.2716
     74  ND2       57.5260   19.0790  111.6350 N.am  877  ASN877     -0.0877
     75  N         61.3510   16.7440  107.3670 N.3   879  THR879     -0.1203
     76  CA        62.4610   17.5840  106.9210 C.3   879  THR879      0.1994
     77  C         63.1200   18.2970  108.0990 C.2   879  THR879      0.2619
     78  O         62.4940   18.5060  109.1360 O.2   879  THR879     -0.2717
     79  CB        61.9950   18.6500  105.9060 C.3   879  THR879      0.1784
     80  OG1       61.0390   19.5180  106.5270 O.3   879  THR879     -0.2211
     81  CG2       61.3650   17.9870  104.6890 C.3   879  THR879      0.0376
     82  N         64.3870   18.6650  107.9360 N.am  880  SER880     -0.1937
     83  CA        65.1230   19.3650  108.9860 C.3   880  SER880      0.2055
     84  C         64.6530   20.8140  109.0320 C.2   880  SER880      0.2644
     85  O         64.2880   21.3260  110.0890 O.2   880  SER880     -0.2714
     86  CB        66.6270   19.3120  108.7050 C.3   880  SER880      0.2130
     87  OG        66.9260   19.8640  107.4330 O.3   880  SER880     -0.2179
     88  N         64.6710   21.4670  107.8740 N.am  881  THR881     -0.1937
     89  CA        64.2210   22.8500  107.7540 C.3   881  THR881      0.2013
     90  C         62.7840   22.7770  107.2480 C.2   881  THR881      0.2484
     91  O         62.5340   22.3220  106.1350 O.2   881  THR881     -0.2729
     92  CB        65.0760   23.6380  106.7350 C.3   881  THR881      0.1807
     93  OG1       66.4530   23.6050  107.1370 O.3   881  THR881     -0.2208
     94  CG2       64.6110   25.0900  106.6520 C.3   881  THR881      0.0379
     95  N         61.8190   23.2160  108.0670 N.am  882  PRO882     -0.2726
     96  CA        60.4100   23.1750  107.6640 C.3   882  PRO882      0.1402
     97  C         59.9810   24.2370  106.6520 C.2   882  PRO882      0.2269
     98  O         60.3340   25.4090  106.7760 O.2   882  PRO882     -0.2865
     99  CB        59.6760   23.3240  108.9920 C.3   882  PRO882      0.0296
    100  CG        60.5740   24.2600  109.7450 C.3   882  PRO882      0.0237
    101  CD        61.9550   23.6970  109.4550 C.3   882  PRO882      0.0939
    102  N         46.8600   23.5840  110.6490 N.3   899  TYR899     -0.1227
    103  CA        48.2110   23.0440  110.6100 C.3   899  TYR899      0.1736
    104  C         49.1930   24.0910  110.0940 C.2   899  TYR899      0.2595
    105  O         49.0160   24.6270  108.9970 O.2   899  TYR899     -0.2718
    106  CB        48.2240   21.8110  109.6930 C.3   899  TYR899      0.0548
    107  CG        49.5710   21.1530  109.5230 C.ar  899  TYR899     -0.0200
    108  CD1       50.0880   20.3150  110.5090 C.ar  899  TYR899     -0.0009
    109  CD2       50.3420   21.3820  108.3790 C.ar  899  TYR899     -0.0009
    110  CE1       51.3370   19.7180  110.3660 C.ar  899  TYR899      0.0417
    111  CE2       51.5990   20.7890  108.2240 C.ar  899  TYR899      0.0417
    112  CZ        52.0870   19.9590  109.2260 C.ar  899  TYR899      0.1957
    113  OH        53.3280   19.3840  109.1020 O.3   899  TYR899     -0.2866
    114  N         50.2160   24.3920  110.8920 N.am  900  VAL900     -0.1966
    115  CA        51.2340   25.3610  110.4910 C.3   900  VAL900      0.1727
    116  C         52.5620   24.6140  110.4920 C.2   900  VAL900      0.2616
    117  O         53.1750   24.4030  111.5410 O.2   900  VAL900     -0.2715
    118  CB        51.3030   26.5610  111.4600 C.3   900  VAL900      0.0290
    119  CG1       52.2430   27.6320  110.8940 C.3   900  VAL900      0.0023
    120  CG2       49.9120   27.1400  111.6690 C.3   900  VAL900      0.0023
    121  N         52.9890   24.2100  109.3000 N.am  901  ASN901     -0.1958
    122  CA        54.2080   23.4280  109.1220 C.3   901  ASN901      0.1819
    123  C         55.4580   23.9780  109.7910 C.2   901  ASN901      0.2621
    124  O         56.2430   23.2140  110.3500 O.2   901  ASN901     -0.2715
    125  CB        54.4940   23.2260  107.6260 C.3   901  ASN901      0.1195
    126  CG        55.4290   22.0560  107.3670 C.2   901  ASN901      0.2630
    127  OD1       55.0740   20.9040  107.6170 O.2   901  ASN901     -0.2716
    128  ND2       56.6350   22.3460  106.8730 N.am  901  ASN901     -0.0877
    129  N         55.6390   25.2960  109.7490 N.am  902  ASN902     -0.1958
    130  CA        56.8280   25.9120  110.3280 C.3   902  ASN902      0.1819
    131  C         56.7620   26.2420  111.8200 C.2   902  ASN902      0.2621
    132  O         57.7590   26.6720  112.3960 O.2   902  ASN902     -0.2715
    133  CB        57.1920   27.1800  109.5370 C.3   902  ASN902      0.1195
    134  CG        56.0190   28.1400  109.3880 C.2   902  ASN902      0.2630
    135  OD1       54.9810   27.7860  108.8280 O.2   902  ASN902     -0.2716
    136  ND2       56.1840   29.3640  109.8840 N.am  902  ASN902     -0.0877
    137  N         55.6110   26.0320  112.4530 N.am  903  ILE903     -0.1963
    138  CA        55.4780   26.3530  113.8720 C.3   903  ILE903      0.1727
    139  C         55.1460   25.1480  114.7600 C.2   903  ILE903      0.2617
    140  O         55.7280   24.9940  115.8330 O.2   903  ILE903     -0.2715
    141  CB        54.4270   27.4740  114.0810 C.3   903  ILE903      0.0290
    142  CG1       54.8790   28.7370  113.3340 C.3   903  ILE903      0.0022
    143  CG2       54.2550   27.7740  115.5750 C.3   903  ILE903      0.0023
    144  CD1       53.9220   29.9230  113.4590 C.3   903  ILE903      0.0001
    145  N         54.2160   24.3040  114.3190 N.am  904  GLY904     -0.1941
    146  CA        53.8710   23.1150  115.0860 C.3   904  GLY904      0.1998
    147  C         53.1330   23.3540  116.3900 C.2   904  GLY904      0.2481
    148  O         52.6810   24.4690  116.6480 O.2   904  GLY904     -0.2729
    149  N         53.0500   22.3420  117.2700 N.am  905  PRO905     -0.2715
    150  CA        53.6290   21.0000  117.1500 C.3   905  PRO905      0.1536
    151  C         52.6970   19.8980  116.6340 C.2   905  PRO905      0.2598
    152  O         53.1300   18.7590  116.4600 O.2   905  PRO905     -0.2715
    153  CB        54.0440   20.7120  118.5730 C.3   905  PRO905      0.0310
    154  CG        52.8070   21.2030  119.3120 C.3   905  PRO905      0.0237
    155  CD        52.5020   22.5380  118.6270 C.3   905  PRO905      0.0939
    156  N         51.4290   20.2170  116.4010 N.am  906  GLN906     -0.1964
    157  CA        50.4790   19.1970  115.9670 C.3   906  GLN906      0.1733
    158  C         50.5750   18.7280  114.5180 C.2   906  GLN906      0.2617
    159  O         50.5570   19.5320  113.5830 O.2   906  GLN906     -0.2715
    160  CB        49.0450   19.6580  116.2640 C.3   906  GLN906      0.0408
    161  CG        47.9760   18.6090  115.9580 C.3   906  GLN906      0.0908
    162  CD        46.6090   18.9930  116.5030 C.2   906  GLN906      0.2608
    163  OE1       46.3300   20.1700  116.7310 O.2   906  GLN906     -0.2717
    164  NE2       45.7480   18.0010  116.7020 N.am  906  GLN906     -0.0878
    165  N         50.6780   17.4110  114.3550 N.am  907  THR907     -0.1951
    166  CA        50.7520   16.7750  113.0390 C.3   907  THR907      0.1897
    167  C         49.6410   15.7300  112.8910 C.2   907  THR907      0.2313
    168  O         49.3220   15.3120  111.7780 O.2   907  THR907     -0.2863
    169  CB        52.1140   16.0570  112.8180 C.3   907  THR907      0.1794
    170  OG1       52.3390   15.1100  113.8720 O.3   907  THR907     -0.2208
    171  CG2       53.2580   17.0650  112.8020 C.3   907  THR907      0.0378
@<TRIPOS>BOND
     1    81    79    1
     2    79    80    1
     3    79    76    1
     4    16    17    1
     5    91    90    2
     6    97    98    2
     7    97    96    1
     8    94    92    1
     9    92    93    1
    10    92    89    1
    11   128   126   am
    12    76    75    1
    13    76    77    1
    14    90    89    1
    15    90    95   am
    16   126   127    2
    17   126   125    1
    18    17    18    1
    19    17    20    1
    20    87    86    1
    21   125   122    1
    22    96    95    1
    23    96    99    1
    24    18    19    2
    25    89    88    1
    26    88    84   am
    27    82    77   am
    28    82    83    1
    29    95   101    1
    30    77    78    2
    31   111   109   ar
    32   111   112   ar
    33    20    21    1
    34   109   107   ar
    35    67    68    1
    36    86    83    1
    37   135   134    2
    38    68    69    1
    39    68    71    1
    40    83    84    1
    41    99   100    1
    42   105   104    2
    43    84    85    2
    44   113   112    1
    45   122   121    1
    46   122   123    1
    47   112   110   ar
    48    69    70    2
    49   121   116   am
    50   134   133    1
    51   134   136   am
    52    73    72    2
    53   101   100    1
    54   107   106    1
    55   107   108   ar
    56   133   130    1
    57   106   103    1
    58   129   123   am
    59   129   130    1
    60    21    23   ar
    61    21    22   ar
    62   123   124    2
    63    66    64   am
    64    26    23   ar
    65    26    28   ar
    66   104   103    1
    67   104   114   am
    68    71    72    1
    69   130   131    1
    70   110   108   ar
    71    72    74   am
    72    23    25   ar
    73   115   116    1
    74   115   114    1
    75   115   118    1
    76   116   117    2
    77   103   102    1
    78    22    24   ar
    79   119   118    1
    80    28    29   ar
    81    64    65    2
    82    64    63    1
    83   118   120    1
    84    62    61    2
    85   168   167    2
    86    25    24   ar
    87    25    27   ar
    88   131   132    2
    89   131   137   am
    90    63    60    1
    91    61    60    1
    92    29    27   ar
    93   137   138    1
    94   171   169    1
    95   169   166    1
    96   169   170    1
    97   167   166    1
    98    60    59    1
    99   166   165    1
   100   142   144    1
   101   142   141    1
   102   159   158    2
   103   138   141    1
   104   138   139    1
   105    30    31    1
   106   141   143    1
   107    36    34    1
   108   145   139   am
   109   145   146    1
   110   165   158   am
   111   158   157    1
   112   139   140    2
   113    31    34    1
   114    31    32    1
   115   146   147    1
   116    34    35    1
   117   161   160    1
   118   161   162    1
   119   157   160    1
   120   157   156    1
   121    32    33    2
   122    32    37   am
   123    57    56    2
   124    55    56    1
   125    55    52    1
   126   147   148    2
   127   147   149   am
   128   156   151   am
   129   152   151    2
   130    56    58   am
   131   162   164   am
   132   162   163    2
   133   151   150    1
   134    54    53    2
   135    37    38    1
   136   150   149    1
   137   150   153    1
   138   149   155    1
   139    53    52    1
   140    52    51    1
   141    51    45   am
   142    38    41    1
   143    38    39    1
   144   153   154    1
   145   155   154    1
   146     1     2    1
   147    41    42    1
   148     2     3    1
   149    43    39   am
   150    43    44    1
   151    39    40    2
   152    45    44    1
   153    45    46    2
   154    48    50    1
   155    48    47    1
   156    44    47    1
   157     3     4    2
   158     3     5   am
   159    47    49    1
   160     5     6    1
   161     8     7    2
   162     7     6    1
   163     7     9   am
   164    12    11    2
   165    11    10    1
   166     9    10    1
   167    10    13    1
   168    13    14    1
   169    13    15    1
