@<TRIPOS>MOLECULE
tmp/1xc6A03.pdb
 101 99 0 0 0
SMALL
GASTEIGER

@<TRIPOS>ATOM
      1  N         44.0680   38.9490   91.0760 N.3   650  LYS650     -0.1231
      2  CA        43.8900   39.1190   89.6320 C.3   650  LYS650      0.1693
      3  C         43.3220   40.5030   89.3280 C.2   650  LYS650      0.2592
      4  O         42.4760   41.0090   90.0700 O.2   650  LYS650     -0.2718
      5  CB        42.9440   38.0520   89.0790 C.3   650  LYS650      0.0285
      6  CG        43.4610   36.6320   89.2050 C.3   650  LYS650      0.0035
      7  CD        42.3720   35.6290   88.8640 C.3   650  LYS650      0.0206
      8  CE        42.8190   34.2000   89.1440 C.3   650  LYS650      0.1093
      9  NZ        41.6650   33.2510   89.1430 N.3   650  LYS650     -0.1314
     10  N         43.7790   41.1090   88.2350 N.am  651  ASN651     -0.1960
     11  CA        43.3150   42.4410   87.8500 C.3   651  ASN651      0.1819
     12  C         41.8300   42.4880   87.5250 C.2   651  ASN651      0.2622
     13  O         41.2430   43.5640   87.4440 O.2   651  ASN651     -0.2715
     14  CB        44.1070   42.9620   86.6480 C.3   651  ASN651      0.1195
     15  CG        45.5640   43.1860   86.9690 C.2   651  ASN651      0.2630
     16  OD1       45.9010   43.7460   88.0130 O.2   651  ASN651     -0.2716
     17  ND2       46.4420   42.7580   86.0690 N.am  651  ASN651     -0.0877
     18  N         41.2250   41.3220   87.3390 N.am  652  THR652     -0.1937
     19  CA        39.8050   41.2520   87.0240 C.3   652  THR652      0.2028
     20  C         38.9100   41.1640   88.2610 C.2   652  THR652      0.2642
     21  O         37.6840   41.2150   88.1400 O.2   652  THR652     -0.2714
     22  CB        39.4990   40.0420   86.1220 C.3   652  THR652      0.1808
     23  OG1       39.9830   38.8470   86.7470 O.3   652  THR652     -0.2208
     24  CG2       40.1650   40.2080   84.7640 C.3   652  THR652      0.0379
     25  N         39.5050   41.0400   89.4470 N.am  653  TYR653     -0.1973
     26  CA        38.6990   40.9340   90.6630 C.3   653  TYR653      0.1639
     27  C         37.9760   42.2250   91.0290 C.2   653  TYR653      0.2290
     28  O         38.5720   43.3010   91.0720 O.2   653  TYR653     -0.2864
     29  CB        39.5420   40.4960   91.8620 C.3   653  TYR653      0.0560
     30  CG        38.6770   40.1150   93.0440 C.ar  653  TYR653     -0.0198
     31  CD1       38.0180   38.8850   93.0790 C.ar  653  TYR653     -0.0009
     32  CD2       38.4480   41.0150   94.0870 C.ar  653  TYR653     -0.0009
     33  CE1       37.1460   38.5600   94.1210 C.ar  653  TYR653      0.0417
     34  CE2       37.5770   40.7020   95.1330 C.ar  653  TYR653      0.0417
     35  CZ        36.9280   39.4750   95.1400 C.ar  653  TYR653      0.1957
     36  OH        36.0390   39.1790   96.1420 O.3   653  TYR653     -0.2866
     37  N         42.0600   45.2820  101.3120 N.3   694  ARG694     -0.1245
     38  CA        42.4480   45.7630   99.9870 C.3   694  ARG694      0.1563
     39  C         42.4940   47.2840  100.0070 C.2   694  ARG694      0.2260
     40  O         41.4730   47.9440  100.2150 O.2   694  ARG694     -0.2867
     41  CB        41.4640   45.2680   98.9160 C.3   694  ARG694      0.0307
     42  CG        41.6550   43.7930   98.5480 C.3   694  ARG694      0.0489
     43  CD        40.5190   43.2550   97.6810 C.3   694  ARG694      0.2205
     44  NE        40.4430   43.8530   96.3450 N.pl3 694  ARG694     -0.0865
     45  CZ        41.2230   43.5280   95.3150 C.cat 694  ARG694      0.5346
     46  NH1       42.1650   42.6040   95.4470 N.pl3 694  ARG694      0.1354
     47  NH2       41.0330   44.1050   94.1340 N.pl3 694  ARG694      0.1354
     48  N         43.0750   50.6360   97.9980 N.3   696  HIS696     -0.1241
     49  CA        43.0760   51.2500   96.6730 C.3   696  HIS696      0.1621
     50  C         43.7250   52.6260   96.6680 C.2   696  HIS696      0.2264
     51  O         43.5040   53.4280   97.5770 O.2   696  HIS696     -0.2867
     52  CB        41.6340   51.3910   96.1700 C.3   696  HIS696      0.0745
     53  CG        40.9300   50.0870   95.9770 C.ar  696  HIS696      0.0817
     54  ND1       40.9140   49.4220   94.7700 N.ar  696  HIS696     -0.2268
     55  CD2       40.2520   49.3030   96.8470 C.ar  696  HIS696      0.1154
     56  CE1       40.2560   48.2850   94.9050 C.ar  696  HIS696      0.1986
     57  NE2       39.8440   48.1880   96.1560 N.ar  696  HIS696     -0.2212
     58  N         48.2200   44.3590   93.3000 N.3   723  ASN723     -0.1240
     59  CA        47.5890   43.9260   92.0600 C.3   723  ASN723      0.1653
     60  C         47.9880   42.4540   91.9270 C.2   723  ASN723      0.2266
     61  O         47.7650   41.6820   92.8610 O.2   723  ASN723     -0.2867
     62  CB        48.0410   44.7620   90.8550 C.3   723  ASN723      0.1155
     63  CG        47.1500   45.9830   90.6320 C.2   723  ASN723      0.2627
     64  OD1       47.0870   46.8750   91.4790 O.2   723  ASN723     -0.2716
     65  ND2       46.4540   46.0140   89.4980 N.am  723  ASN723     -0.0877
     66  N         48.0750   55.7500   87.3780 N.3   752  LYS752     -0.1231
     67  CA        47.3680   54.4700   87.3050 C.3   752  LYS752      0.1693
     68  C         46.9180   53.9880   88.6860 C.2   752  LYS752      0.2592
     69  O         47.5200   54.3380   89.7000 O.2   752  LYS752     -0.2718
     70  CB        48.2430   53.4020   86.6430 C.3   752  LYS752      0.0285
     71  CG        48.2380   53.4670   85.1250 C.3   752  LYS752      0.0035
     72  CD        48.8720   52.2290   84.5140 C.3   752  LYS752      0.0206
     73  CE        48.7020   52.2130   83.0020 C.3   752  LYS752      0.1093
     74  NZ        49.3250   51.0110   82.3850 N.3   752  LYS752     -0.1314
     75  N         45.8550   53.1880   88.7160 N.am  753  ASN753     -0.1960
     76  CA        45.3200   52.6700   89.9710 C.3   753  ASN753      0.1819
     77  C         45.8990   51.3100   90.3500 C.2   753  ASN753      0.2621
     78  O         46.0850   50.4380   89.5020 O.2   753  ASN753     -0.2715
     79  CB        43.7940   52.5500   89.9010 C.3   753  ASN753      0.1195
     80  CG        43.1140   53.8740   89.6260 C.2   753  ASN753      0.2630
     81  OD1       43.4590   54.8990   90.2150 O.2   753  ASN753     -0.2716
     82  ND2       42.1280   53.8570   88.7360 N.am  753  ASN753     -0.0877
     83  N         46.1710   51.1400   91.6390 N.am  754  TYR754     -0.1960
     84  CA        46.7130   49.8930   92.1610 C.3   754  TYR754      0.1771
     85  C         45.9480   49.4910   93.4160 C.2   754  TYR754      0.2619
     86  O         45.2770   50.3160   94.0430 O.2   754  TYR754     -0.2715
     87  CB        48.1910   50.0670   92.5170 C.3   754  TYR754      0.0574
     88  CG        49.0930   50.3210   91.3300 C.ar  754  TYR754     -0.0198
     89  CD1       49.6230   49.2610   90.5900 C.ar  754  TYR754     -0.0009
     90  CD2       49.4100   51.6240   90.9400 C.ar  754  TYR754     -0.0009
     91  CE1       50.4540   49.4950   89.4870 C.ar  754  TYR754      0.0417
     92  CE2       50.2370   51.8690   89.8400 C.ar  754  TYR754      0.0417
     93  CZ        50.7540   50.8020   89.1200 C.ar  754  TYR754      0.1957
     94  OH        51.5710   51.0470   88.0400 O.3   754  TYR754     -0.2866
     95  N         46.0520   48.2190   93.7810 N.am  755  VAL755     -0.1977
     96  CA        45.3990   47.7320   94.9840 C.3   755  VAL755      0.1596
     97  C         46.3450   46.8210   95.7600 C.2   755  VAL755      0.2287
     98  O         46.9220   45.8880   95.2030 O.2   755  VAL755     -0.2864
     99  CB        44.0970   46.9590   94.6600 C.3   755  VAL755      0.0276
    100  CG1       44.3940   45.7790   93.7460 C.3   755  VAL755      0.0022
    101  CG2       43.4430   46.4860   95.9560 C.3   755  VAL755      0.0022
@<TRIPOS>BOND
     1    74    73    1
     2    73    72    1
     3    72    71    1
     4    24    22    1
     5    71    70    1
     6    17    15   am
     7    22    23    1
     8    22    19    1
     9    70    67    1
    10    14    15    1
    11    14    11    1
    12    15    16    2
    13    19    18    1
    14    19    20    1
    15    67    66    1
    16    67    68    1
    17    18    12   am
    18    13    12    2
    19    12    11    1
    20    11    10    1
    21    94    93    1
    22    21    20    2
    23    10     3   am
    24    20    25   am
    25    68    75   am
    26    68    69    2
    27    75    76    1
    28    82    80   am
    29     7     8    1
    30     7     6    1
    31     5     6    1
    32     5     2    1
    33    93    91   ar
    34    93    92   ar
    35     9     8    1
    36     3     2    1
    37     3     4    2
    38    25    26    1
    39    91    89   ar
    40    65    63   am
    41    78    77    2
    42    80    79    1
    43    80    81    2
    44     2     1    1
    45    92    90   ar
    46    79    76    1
    47    76    77    1
    48    77    83   am
    49    89    88   ar
    50    63    62    1
    51    63    64    2
    52    26    27    1
    53    26    29    1
    54    62    59    1
    55    90    88   ar
    56    27    28    2
    57    88    87    1
    58    83    84    1
    59    29    30    1
    60    60    59    1
    61    60    61    2
    62    59    58    1
    63    84    87    1
    64    84    85    1
    65    30    31   ar
    66    30    32   ar
    67    31    33   ar
    68    85    95   am
    69    85    86    2
    70   100    99    1
    71    95    96    1
    72    32    34   ar
    73    33    35   ar
    74    47    45    1
    75    99    96    1
    76    99   101    1
    77    54    56   ar
    78    54    53   ar
    79    56    57   ar
    80    96    97    1
    81    34    35   ar
    82    35    36    1
    83    98    97    2
    84    45    46    1
    85    45    44    2
    86    53    52    1
    87    53    55   ar
    88    57    55   ar
    89    52    49    1
    90    44    43    1
    91    50    49    1
    92    50    51    2
    93    49    48    1
    94    43    42    1
    95    42    41    1
    96    41    38    1
    97    38    39    1
    98    38    37    1
    99    39    40    2
