@<TRIPOS>MOLECULE
tmp/1xc6A04.pdb
 99 94 0 0 0
SMALL
GASTEIGER

@<TRIPOS>ATOM
      1  N         40.2160   50.2160  124.2260 N.3   670  ALA670     -0.1231
      2  CA        41.5630   49.9760  124.7340 C.3   670  ALA670      0.1694
      3  C         42.6680   50.3470  123.7470 C.2   670  ALA670      0.2592
      4  O         43.8400   50.3750  124.1170 O.2   670  ALA670     -0.2718
      5  CB        41.7100   48.5130  125.1510 C.3   670  ALA670      0.0304
      6  N         42.3040   50.6330  122.4980 N.am  671  HIS671     -0.1962
      7  CA        43.3010   50.9860  121.4860 C.3   671  HIS671      0.1787
      8  C         42.8950   52.1450  120.5830 C.2   671  HIS671      0.2620
      9  O         41.8870   52.0660  119.8830 O.2   671  HIS671     -0.2715
     10  CB        43.6130   49.7760  120.5970 C.3   671  HIS671      0.0785
     11  CG        44.1790   48.6090  121.3400 C.ar  671  HIS671      0.0821
     12  ND1       43.3910   47.7130  122.0310 N.ar  671  HIS671     -0.2267
     13  CD2       45.4580   48.2140  121.5360 C.ar  671  HIS671      0.1154
     14  CE1       44.1620   46.8180  122.6230 C.ar  671  HIS671      0.1986
     15  NE2       45.4210   47.1000  122.3380 N.ar  671  HIS671     -0.2212
     16  N         43.6850   53.2120  120.5860 N.am  672  SER672     -0.1950
     17  CA        43.3960   54.3590  119.7320 C.3   672  SER672      0.1924
     18  C         43.9760   54.0870  118.3400 C.2   672  SER672      0.2314
     19  O         44.9670   53.3670  118.2050 O.2   672  SER672     -0.2863
     20  CB        44.0080   55.6320  120.3240 C.3   672  SER672      0.2116
     21  OG        45.4150   55.5170  120.4350 O.3   672  SER672     -0.2180
     22  N         45.8450   54.5280  114.6520 N.3   674  GLN674     -0.1245
     23  CA        47.1010   55.0730  114.1540 C.3   674  GLN674      0.1566
     24  C         47.0010   55.2240  112.6320 C.2   674  GLN674      0.2260
     25  O         47.9600   55.6090  111.9670 O.2   674  GLN674     -0.2867
     26  CB        48.2660   54.1490  114.5240 C.3   674  GLN674      0.0367
     27  CG        48.6270   54.1840  116.0040 C.3   674  GLN674      0.0905
     28  CD        49.7070   53.1850  116.3690 C.2   674  GLN674      0.2608
     29  OE1       49.4190   52.0620  116.7990 O.2   674  GLN674     -0.2717
     30  NE2       50.9590   53.5810  116.1860 N.am  674  GLN674     -0.0878
     31  N         55.3250   50.3850  104.4430 N.3   707  PHE707     -0.1241
     32  CA        55.5300   49.9060  105.8010 C.3   707  PHE707      0.1605
     33  C         54.1700   49.4800  106.3350 C.2   707  PHE707      0.2264
     34  O         53.1560   50.1120  106.0360 O.2   707  PHE707     -0.2867
     35  CB        56.0890   51.0070  106.7040 C.3   707  PHE707      0.0534
     36  CG        55.9730   50.6900  108.1710 C.ar  707  PHE707     -0.0203
     37  CD1       56.8150   49.7550  108.7630 C.ar  707  PHE707     -0.0042
     38  CD2       54.9790   51.2830  108.9460 C.ar  707  PHE707     -0.0042
     39  CE1       56.6680   49.4090  110.1110 C.ar  707  PHE707     -0.0003
     40  CE2       54.8220   50.9460  110.2940 C.ar  707  PHE707     -0.0003
     41  CZ        55.6680   50.0060  110.8770 C.ar  707  PHE707     -0.0000
     42  N         52.1850   47.2530  109.8810 N.3   709  GLN709     -0.1245
     43  CA        52.1980   46.4450  111.0880 C.3   709  GLN709      0.1566
     44  C         50.8620   45.7230  111.0880 C.2   709  GLN709      0.2260
     45  O         49.8030   46.3590  111.0960 O.2   709  GLN709     -0.2867
     46  CB        52.3060   47.2860  112.3680 C.3   709  GLN709      0.0367
     47  CG        52.0040   46.4460  113.6260 C.3   709  GLN709      0.0905
     48  CD        52.0930   47.2190  114.9350 C.2   709  GLN709      0.2608
     49  OE1       51.8030   48.4100  114.9910 O.2   709  GLN709     -0.2717
     50  NE2       52.4690   46.5250  116.0030 N.am  709  GLN709     -0.0878
     51  N         55.2850   35.5520  118.2910 N.3   736  ASN736     -0.1240
     52  CA        54.8260   36.8120  117.7040 C.3   736  ASN736      0.1653
     53  C         53.3190   36.8600  117.4830 C.2   736  ASN736      0.2266
     54  O         52.7510   35.9420  116.8940 O.2   736  ASN736     -0.2867
     55  CB        55.5010   37.0620  116.3480 C.3   736  ASN736      0.1155
     56  CG        56.9800   37.3620  116.4680 C.2   736  ASN736      0.2627
     57  OD1       57.8230   36.4860  116.2940 O.2   736  ASN736     -0.2716
     58  ND2       57.3010   38.6100  116.7670 N.am  736  ASN736     -0.0877
     59  N         52.1230   39.9290  116.4100 N.3   738  ASN738     -0.1225
     60  CA        52.1020   41.0460  115.4620 C.3   738  ASN738      0.1785
     61  C         53.4770   41.1340  114.7810 C.2   738  ASN738      0.2597
     62  O         54.4260   40.4910  115.2250 O.2   738  ASN738     -0.2718
     63  CB        51.7750   42.3700  116.1730 C.3   738  ASN738      0.1169
     64  CG        52.9170   42.8750  117.0450 C.2   738  ASN738      0.2627
     65  OD1       53.1620   42.3560  118.1330 O.2   738  ASN738     -0.2716
     66  ND2       53.6200   43.8940  116.5650 N.am  738  ASN738     -0.0877
     67  N         53.5820   41.9210  113.7110 N.am  739  ASN739     -0.1960
     68  CA        54.8450   42.0570  112.9790 C.3   739  ASN739      0.1819
     69  C         54.9570   43.4120  112.2740 C.2   739  ASN739      0.2621
     70  O         53.9840   43.9030  111.7010 O.2   739  ASN739     -0.2715
     71  CB        54.9640   40.9400  111.9280 C.3   739  ASN739      0.1195
     72  CG        56.3270   40.9160  111.2330 C.2   739  ASN739      0.2630
     73  OD1       57.3230   40.4840  111.8110 O.2   739  ASN739     -0.2716
     74  ND2       56.3700   41.3830  109.9880 N.am  739  ASN739     -0.0877
     75  N         56.1440   44.0100  112.3270 N.am  740  ASN740     -0.1972
     76  CA        56.4050   45.2820  111.6560 C.3   740  ASN740      0.1688
     77  C         57.3190   44.9910  110.4780 C.2   740  ASN740      0.2292
     78  O         58.3250   44.3020  110.6290 O.2   740  ASN740     -0.2864
     79  CB        57.1260   46.2670  112.5730 C.3   740  ASN740      0.1181
     80  CG        56.2940   46.6780  113.7480 C.2   740  ASN740      0.2629
     81  OD1       55.1740   47.1650  113.5920 O.2   740  ASN740     -0.2716
     82  ND2       56.8450   46.4870  114.9400 N.am  740  ASN740     -0.0877
     83  N         47.4270   47.6160  111.9930 N.3   783  ILE783     -0.1231
     84  CA        47.6030   48.5780  113.0770 C.3   783  ILE783      0.1692
     85  C         48.2570   49.8730  112.5970 C.2   783  ILE783      0.2591
     86  O         47.9140   50.9630  113.0650 O.2   783  ILE783     -0.2718
     87  CB        48.4730   47.9740  114.2010 C.3   783  ILE783      0.0266
     88  CG1       47.9580   46.5750  114.5680 C.3   783  ILE783      0.0019
     89  CG2       48.4620   48.8880  115.4250 C.3   783  ILE783      0.0020
     90  CD1       46.5030   46.5410  115.0290 C.3   783  ILE783      0.0001
     91  N         49.2030   49.7330  111.6710 N.am  784  GLN784     -0.1979
     92  CA        49.9310   50.8630  111.0960 C.3   784  GLN784      0.1601
     93  C         50.2600   50.5930  109.6340 C.2   784  GLN784      0.2287
     94  O         50.3440   49.4430  109.2100 O.2   784  GLN784     -0.2864
     95  CB        51.2770   51.0670  111.7900 C.3   784  GLN784      0.0394
     96  CG        51.2680   51.4830  113.2380 C.3   784  GLN784      0.0908
     97  CD        52.6860   51.6670  113.7430 C.2   784  GLN784      0.2608
     98  OE1       53.3320   50.7160  114.1890 O.2   784  GLN784     -0.2717
     99  NE2       53.1920   52.8870  113.6410 N.am  784  GLN784     -0.0878
@<TRIPOS>BOND
     1    31    32    1
     2    32    33    1
     3    32    35    1
     4    34    33    2
     5    35    36    1
     6    36    37   ar
     7    36    38   ar
     8    37    39   ar
     9    38    40   ar
    10    94    93    2
    11    93    92    1
    12    42    43    1
    13    74    72   am
    14    39    41   ar
    15    40    41   ar
    16    77    78    2
    17    77    76    1
    18    43    44    1
    19    43    46    1
    20    44    45    2
    21    92    91    1
    22    92    95    1
    23    72    73    2
    24    72    71    1
    25    76    75    1
    26    76    79    1
    27    91    85   am
    28    70    69    2
    29    95    96    1
    30    71    68    1
    31    25    24    2
    32    83    84    1
    33    69    75   am
    34    69    68    1
    35    46    47    1
    36    79    80    1
    37    85    86    2
    38    85    84    1
    39    24    23    1
    40    68    67    1
    41    84    87    1
    42    96    97    1
    43    81    80    2
    44    47    48    1
    45    99    97   am
    46    67    61   am
    47    97    98    2
    48    80    82   am
    49    23    26    1
    50    23    22    1
    51    87    88    1
    52    87    89    1
    53    26    27    1
    54    88    90    1
    55    61    62    2
    56    61    60    1
    57    48    49    2
    58    48    50   am
    59    60    63    1
    60    60    59    1
    61    27    28    1
    62    63    64    1
    63    30    28   am
    64    57    56    2
    65    55    56    1
    66    55    52    1
    67    28    29    2
    68    56    58   am
    69    66    64   am
    70    54    53    2
    71    64    65    2
    72    53    52    1
    73    52    51    1
    74    19    18    2
    75    18    17    1
    76    17    20    1
    77    17    16    1
    78     9     8    2
    79    20    21    1
    80     8    16   am
    81     8     7    1
    82    10    11    1
    83    10     7    1
    84    11    13   ar
    85    11    12   ar
    86     7     6    1
    87    13    15   ar
    88    12    14   ar
    89    15    14   ar
    90     6     3   am
    91     3     4    2
    92     3     2    1
    93     1     2    1
    94     2     5    1
