@<TRIPOS>MOLECULE
tmp/1xc6A06.pdb
 134 130 0 0 0
SMALL
GASTEIGER

@<TRIPOS>ATOM
      1  N         31.6860   24.3310  131.2760 N.3    56  TYR56      -0.1241
      2  CA        31.6000   25.7430  130.9060 C.3    56  TYR56       0.1605
      3  C         30.6240   25.8440  129.7410 C.2    56  TYR56       0.2264
      4  O         30.3390   24.8520  129.0680 O.2    56  TYR56      -0.2867
      5  CB        32.9350   26.2820  130.3710 C.3    56  TYR56       0.0534
      6  CG        33.9960   26.6610  131.3820 C.ar   56  TYR56      -0.0201
      7  CD1       33.6890   27.4420  132.4970 C.ar   56  TYR56      -0.0009
      8  CD2       35.3280   26.3080  131.1720 C.ar   56  TYR56      -0.0009
      9  CE1       34.6850   27.8650  133.3770 C.ar   56  TYR56       0.0417
     10  CE2       36.3320   26.7250  132.0410 C.ar   56  TYR56       0.0417
     11  CZ        36.0030   27.5030  133.1420 C.ar   56  TYR56       0.1957
     12  OH        36.9930   27.9130  134.0060 O.3    56  TYR56      -0.2866
     13  N         34.6930   32.7930  130.9160 N.3    99  ILE99      -0.1231
     14  CA        35.1390   31.4660  131.3360 C.3    99  ILE99       0.1692
     15  C         36.6400   31.2000  131.1720 C.2    99  ILE99       0.2592
     16  O         37.1510   30.2350  131.7410 O.2    99  ILE99      -0.2718
     17  CB        34.3760   30.3460  130.5770 C.3    99  ILE99       0.0266
     18  CG1       34.6280   30.4620  129.0690 C.3    99  ILE99       0.0019
     19  CG2       32.8770   30.4330  130.8810 C.3    99  ILE99       0.0020
     20  CD1       34.0720   29.2940  128.2580 C.3    99  ILE99       0.0001
     21  N         37.3400   32.0520  130.4180 N.am  100  ASN100     -0.1960
     22  CA        38.7810   31.8760  130.1630 C.3   100  ASN100      0.1819
     23  C         38.8720   30.5820  129.3410 C.2   100  ASN100      0.2621
     24  O         38.6890   30.6120  128.1250 O.2   100  ASN100     -0.2715
     25  CB        39.5500   31.7520  131.4900 C.3   100  ASN100      0.1195
     26  CG        41.0130   32.1680  131.3640 C.2   100  ASN100      0.2630
     27  OD1       41.3170   33.2880  130.9520 O.2   100  ASN100     -0.2716
     28  ND2       41.9240   31.2690  131.7300 N.am  100  ASN100     -0.0877
     29  N         39.1580   29.4590  130.0020 N.am  101  ALA101     -0.1963
     30  CA        39.1760   28.1380  129.3560 C.3   101  ALA101      0.1728
     31  C         40.0210   27.9090  128.1030 C.2   101  ALA101      0.2616
     32  O         39.8490   26.8930  127.4260 O.2   101  ALA101     -0.2715
     33  CB        37.7290   27.7270  129.0510 C.3   101  ALA101      0.0334
     34  N         40.9290   28.8250  127.7930 N.am  102  GLU102     -0.1977
     35  CA        41.7540   28.6980  126.5970 C.3   102  GLU102      0.1602
     36  C         40.9080   28.7020  125.3140 C.2   102  GLU102      0.2287
     37  O         41.2840   28.0920  124.3100 O.2   102  GLU102     -0.2864
     38  CB        42.6200   27.4290  126.6540 C.3   102  GLU102      0.0415
     39  CG        43.7950   27.4860  127.6520 C.3   102  GLU102      0.1163
     40  CD        43.3730   27.3190  129.1080 C.2   102  GLU102      0.3649
     41  OE1       42.8330   26.2490  129.4640 O.co2 102  GLU102     -0.2457
     42  OE2       43.5880   28.2560  129.9050 O.co2 102  GLU102     -0.2457
     43  N         34.3860   33.6120  136.8510 N.3   159  ASN159     -0.1225
     44  CA        35.4550   32.6180  136.7980 C.3   159  ASN159      0.1785
     45  C         36.7580   33.2410  137.2810 C.2   159  ASN159      0.2597
     46  O         37.2710   34.1790  136.6700 O.2   159  ASN159     -0.2718
     47  CB        35.6540   32.0940  135.3720 C.3   159  ASN159      0.1169
     48  CG        36.5750   30.8840  135.3250 C.2   159  ASN159      0.2627
     49  OD1       36.1690   29.7730  135.6730 O.2   159  ASN159     -0.2716
     50  ND2       37.8260   31.0960  134.9140 N.am  159  ASN159     -0.0877
     51  N         37.2930   32.7070  138.3740 N.am  160  GLU160     -0.1979
     52  CA        38.5270   33.2150  138.9540 C.3   160  GLU160      0.1602
     53  C         38.5060   34.7340  139.1050 C.2   160  GLU160      0.2287
     54  O         39.4110   35.4210  138.6280 O.2   160  GLU160     -0.2864
     55  CB        39.7320   32.8110  138.1000 C.3   160  GLU160      0.0415
     56  CG        40.0530   31.3290  138.1240 C.3   160  GLU160      0.1163
     57  CD        41.4190   31.0390  137.5360 C.2   160  GLU160      0.3649
     58  OE1       41.6630   31.4190  136.3710 O.co2 160  GLU160     -0.2457
     59  OE2       42.2520   30.4340  138.2390 O.co2 160  GLU160     -0.2457
     60  N         41.1250   27.3170  143.1040 N.3   219  ASP219     -0.1239
     61  CA        41.8050   26.4200  142.1840 C.3   219  ASP219      0.1674
     62  C         43.2690   26.2060  142.5350 C.2   219  ASP219      0.2266
     63  O         43.8300   26.9130  143.3750 O.2   219  ASP219     -0.2867
     64  CB        41.6910   26.9610  140.7520 C.3   219  ASP219      0.1410
     65  CG        40.2470   27.2070  140.3300 C.2   219  ASP219      0.3668
     66  OD1       39.3240   26.7340  141.0280 O.co2 219  ASP219     -0.2456
     67  OD2       40.0330   27.8660  139.2880 O.co2 219  ASP219     -0.2456
     68  N         47.0000   24.5160  140.4490 N.3   221  TYR221     -0.1241
     69  CA        47.7300   23.7930  139.4070 C.3   221  TYR221      0.1605
     70  C         49.1960   23.8460  139.8350 C.2   221  TYR221      0.2264
     71  O         50.0150   24.5130  139.2080 O.2   221  TYR221     -0.2867
     72  CB        47.5650   24.4700  138.0430 C.3   221  TYR221      0.0534
     73  CG        46.1640   24.4070  137.4790 C.ar  221  TYR221     -0.0201
     74  CD1       45.1600   25.2550  137.9490 C.ar  221  TYR221     -0.0009
     75  CD2       45.8410   23.4960  136.4730 C.ar  221  TYR221     -0.0009
     76  CE1       43.8630   25.1970  137.4300 C.ar  221  TYR221      0.0417
     77  CE2       44.5470   23.4280  135.9470 C.ar  221  TYR221      0.0417
     78  CZ        43.5670   24.2800  136.4300 C.ar  221  TYR221      0.1957
     79  OH        42.2940   24.2180  135.9110 O.3   221  TYR221     -0.2866
     80  N         52.1690   24.7700  133.7480 N.3   225  PHE225     -0.1241
     81  CA        51.7220   24.4240  132.4080 C.3   225  PHE225      0.1605
     82  C         52.8120   24.2100  131.3560 C.2   225  PHE225      0.2264
     83  O         52.5150   24.0830  130.1660 O.2   225  PHE225     -0.2867
     84  CB        50.7360   25.4870  131.9380 C.3   225  PHE225      0.0534
     85  CG        49.5600   25.6590  132.8600 C.ar  225  PHE225     -0.0203
     86  CD1       48.5800   24.6760  132.9460 C.ar  225  PHE225     -0.0042
     87  CD2       49.4430   26.7950  133.6580 C.ar  225  PHE225     -0.0042
     88  CE1       47.4980   24.8210  133.8140 C.ar  225  PHE225     -0.0003
     89  CE2       48.3650   26.9510  134.5310 C.ar  225  PHE225     -0.0003
     90  CZ        47.3910   25.9620  134.6090 C.ar  225  PHE225     -0.0000
     91  N         38.7830   23.6260  140.7970 N.3   259  GLU259     -0.1245
     92  CA        39.6170   23.3000  139.6520 C.3   259  GLU259      0.1567
     93  C         40.9580   22.8300  140.1640 C.2   259  GLU259      0.2260
     94  O         41.7240   23.6180  140.7210 O.2   259  GLU259     -0.2867
     95  CB        39.8460   24.5070  138.7400 C.3   259  GLU259      0.0388
     96  CG        38.7240   24.8180  137.7720 C.3   259  GLU259      0.1160
     97  CD        39.1210   25.9060  136.7920 C.2   259  GLU259      0.3649
     98  OE1       40.2480   25.8260  136.2630 O.co2 259  GLU259     -0.2457
     99  OE2       38.3170   26.8270  136.5410 O.co2 259  GLU259     -0.2457
    100  N         47.5710   22.8450  129.4040 N.3   265  PHE265     -0.1241
    101  CA        47.3520   23.2920  128.0360 C.3   265  PHE265      0.1605
    102  C         48.7340   23.3490  127.3770 C.2   265  PHE265      0.2264
    103  O         49.7500   23.1860  128.0590 O.2   265  PHE265     -0.2867
    104  CB        46.6400   24.6570  128.0020 C.3   265  PHE265      0.0534
    105  CG        47.2950   25.7280  128.8360 C.ar  265  PHE265     -0.0203
    106  CD1       48.4210   26.4020  128.3750 C.ar  265  PHE265     -0.0042
    107  CD2       46.7550   26.0900  130.0680 C.ar  265  PHE265     -0.0042
    108  CE1       48.9990   27.4270  129.1280 C.ar  265  PHE265     -0.0003
    109  CE2       47.3230   27.1110  130.8300 C.ar  265  PHE265     -0.0003
    110  CZ        48.4470   27.7820  130.3580 C.ar  265  PHE265     -0.0000
    111  N         40.3510   19.3960  136.3290 N.3   303  TYR303     -0.1241
    112  CA        40.3160   20.1110  135.0540 C.3   303  TYR303      0.1605
    113  C         41.5820   19.7260  134.2870 C.2   303  TYR303      0.2264
    114  O         42.6780   20.0580  134.7360 O.2   303  TYR303     -0.2867
    115  CB        40.3030   21.6250  135.3450 C.3   303  TYR303      0.0534
    116  CG        40.1210   22.5320  134.1410 C.ar  303  TYR303     -0.0201
    117  CD1       41.1130   22.6440  133.1630 C.ar  303  TYR303     -0.0009
    118  CD2       38.9380   23.2540  133.9670 C.ar  303  TYR303     -0.0009
    119  CE1       40.9270   23.4480  132.0380 C.ar  303  TYR303      0.0417
    120  CE2       38.7410   24.0610  132.8460 C.ar  303  TYR303      0.0417
    121  CZ        39.7360   24.1470  131.8870 C.ar  303  TYR303      0.1957
    122  OH        39.5240   24.8990  130.7610 O.3   303  TYR303     -0.2866
    123  N         44.8260   18.0150  126.3690 N.3   325  TYR325     -0.1241
    124  CA        45.1560   18.4020  127.7370 C.3   325  TYR325      0.1605
    125  C         45.9770   17.3690  128.5100 C.2   325  TYR325      0.2264
    126  O         46.3660   17.6180  129.6480 O.2   325  TYR325     -0.2867
    127  CB        43.8600   18.6930  128.5120 C.3   325  TYR325      0.0534
    128  CG        43.9870   19.8100  129.5240 C.ar  325  TYR325     -0.0201
    129  CD1       44.0180   21.1470  129.1150 C.ar  325  TYR325     -0.0009
    130  CD2       44.1250   19.5330  130.8830 C.ar  325  TYR325     -0.0009
    131  CE1       44.1850   22.1810  130.0400 C.ar  325  TYR325      0.0417
    132  CE2       44.2930   20.5550  131.8140 C.ar  325  TYR325      0.0417
    133  CZ        44.3240   21.8760  131.3860 C.ar  325  TYR325      0.1957
    134  OH        44.4940   22.8860  132.3070 O.3   325  TYR325     -0.2866
@<TRIPOS>BOND
     1    37    36    2
     2    36    35    1
     3   123   124    1
     4    35    38    1
     5    35    34    1
     6    38    39    1
     7   102   101    1
     8   102   103    2
     9    32    31    2
    10    39    40    1
    11   124   125    1
    12   124   127    1
    13    34    31   am
    14   104   101    1
    15   104   105    1
    16   101   100    1
    17    31    30    1
    18    24    23    2
    19    20    18    1
    20   106   105   ar
    21   106   108   ar
    22   125   126    2
    23   127   128    1
    24   105   107   ar
    25    33    30    1
    26     4     3    2
    27    18    17    1
    28    40    41   ar
    29    40    42   ar
    30   129   128   ar
    31   129   131   ar
    32   108   110   ar
    33    23    29   am
    34    23    22    1
    35    30    29    1
    36   128   130   ar
    37     3     2    1
    38   131   133   ar
    39   107   109   ar
    40    22    21    1
    41    22    25    1
    42    83    82    2
    43   110   109   ar
    44     5     2    1
    45     5     6    1
    46    21    15   am
    47    17    19    1
    48    17    14    1
    49   122   121    1
    50   130   132   ar
    51     2     1    1
    52    13    14    1
    53    27    26    2
    54    15    14    1
    55    15    16    2
    56     8     6   ar
    57     8    10   ar
    58    82    81    1
    59    26    25    1
    60    26    28   am
    61     6     7   ar
    62   133   132   ar
    63   133   134    1
    64   121   119   ar
    65   121   120   ar
    66    84    81    1
    67    84    85    1
    68   119   117   ar
    69    10    11   ar
    70    81    80    1
    71     7     9   ar
    72   120   118   ar
    73    85    86   ar
    74    85    87   ar
    75    86    88   ar
    76    11     9   ar
    77    11    12    1
    78   117   116   ar
    79    87    89   ar
    80    88    90   ar
    81   118   116   ar
    82   116   115    1
    83   113   114    2
    84   113   112    1
    85    89    90   ar
    86    50    48   am
    87   112   115    1
    88   112   111    1
    89    48    47    1
    90    48    49    2
    91    47    44    1
    92    79    78    1
    93    77    78   ar
    94    77    75   ar
    95    98    97   ar
    96    58    57   ar
    97    78    76   ar
    98    75    73   ar
    99    99    97   ar
   100    46    45    2
   101    97    96    1
   102    44    43    1
   103    44    45    1
   104    45    51   am
   105    76    74   ar
   106    73    74   ar
   107    73    72    1
   108    57    56    1
   109    57    59   ar
   110    96    95    1
   111    72    69    1
   112    55    56    1
   113    55    52    1
   114    51    52    1
   115    54    53    2
   116    95    92    1
   117    52    53    1
   118    71    70    2
   119    67    65   ar
   120    69    70    1
   121    69    68    1
   122    92    93    1
   123    92    91    1
   124    93    94    2
   125    65    64    1
   126    65    66   ar
   127    64    61    1
   128    61    62    1
   129    61    60    1
   130    62    63    2
