@<TRIPOS>MOLECULE
tmp/1xc7A00.pdb
 169 161 0 0 0
SMALL
GASTEIGER

@<TRIPOS>ATOM
      1  N         28.9450   23.8880   30.3370 N.3   124  GLY124     -0.1210
      2  CA        29.1930   22.6290   29.6500 C.3   124  GLY124      0.1956
      3  C         29.9370   21.5180   30.3650 C.2   124  GLY124      0.2611
      4  O         29.4990   20.3620   30.3520 O.2   124  GLY124     -0.2717
      5  N         31.0710   21.8490   30.9740 N.am  125  LEU125     -0.1979
      6  CA        31.8550   20.8410   31.6770 C.3   125  LEU125      0.1596
      7  C         31.0760   20.2920   32.8680 C.2   125  LEU125      0.2287
      8  O         31.0300   19.0780   33.0800 O.2   125  LEU125     -0.2864
      9  CB        33.1970   21.4330   32.1380 C.3   125  LEU125      0.0297
     10  CG        34.1790   20.5000   32.8630 C.3   125  LEU125      0.0022
     11  CD1       35.6070   21.0250   32.7410 C.3   125  LEU125      0.0001
     12  CD2       33.7840   20.3930   34.3220 C.3   125  LEU125      0.0001
     13  N         28.1440   18.1240   31.6810 N.3   128  LEU128     -0.1245
     14  CA        28.6090   16.8670   31.1020 C.3   128  LEU128      0.1561
     15  C         28.7770   15.8370   32.2220 C.2   128  LEU128      0.2260
     16  O         28.3860   14.6770   32.0820 O.2   128  LEU128     -0.2867
     17  CB        29.9570   17.0580   30.3860 C.3   128  LEU128      0.0270
     18  CG        30.4760   15.8010   29.6650 C.3   128  LEU128      0.0019
     19  CD1       29.6850   15.6030   28.3710 C.3   128  LEU128      0.0001
     20  CD2       31.9620   15.9350   29.3440 C.3   128  LEU128      0.0001
     21  N         33.6540   30.2520   34.3140 N.3   266  ASP266     -0.1225
     22  CA        33.4710   29.2680   33.2560 C.3   266  ASP266      0.1805
     23  C         34.7880   28.5550   32.9960 C.2   266  ASP266      0.2598
     24  O         35.1210   28.1990   31.8650 O.2   266  ASP266     -0.2718
     25  CB        32.9470   29.9300   31.9770 C.3   266  ASP266      0.1424
     26  CG        32.3190   28.9310   31.0230 C.2   266  ASP266      0.3668
     27  OD1       31.7910   27.8940   31.4900 O.co2 266  ASP266     -0.2456
     28  OD2       32.3340   29.1870   29.8040 O.co2 266  ASP266     -0.2456
     29  N         35.5320   28.3740   34.0800 N.am  267  ASN267     -0.1960
     30  CA        36.8040   27.6800   34.0780 C.3   267  ASN267      0.1819
     31  C         37.9730   28.2800   33.3070 C.2   267  ASN267      0.2621
     32  O         38.8010   27.5490   32.7630 O.2   267  ASN267     -0.2715
     33  CB        36.5870   26.2250   33.6500 C.3   267  ASN267      0.1195
     34  CG        35.7830   25.4400   34.6720 C.2   267  ASN267      0.2630
     35  OD1       36.2110   25.2700   35.8130 O.2   267  ASN267     -0.2716
     36  ND2       34.6080   24.9680   34.2720 N.am  267  ASN267     -0.0877
     37  N         38.0390   29.6040   33.2350 N.am  268  PHE268     -0.1974
     38  CA        39.1750   30.2460   32.5860 C.3   268  PHE268      0.1639
     39  C         40.1140   30.4570   33.7590 C.2   268  PHE268      0.2290
     40  O         39.6990   30.9510   34.8080 O.2   268  PHE268     -0.2864
     41  CB        38.7530   31.5540   31.9150 C.3   268  PHE268      0.0560
     42  CG        38.0230   31.3370   30.6190 C.ar  268  PHE268     -0.0200
     43  CD1       36.8530   30.5780   30.5830 C.ar  268  PHE268     -0.0042
     44  CD2       38.5390   31.8270   29.4210 C.ar  268  PHE268     -0.0042
     45  CE1       36.2180   30.3040   29.3800 C.ar  268  PHE268     -0.0003
     46  CE2       37.9050   31.5560   28.2100 C.ar  268  PHE268     -0.0003
     47  CZ        36.7420   30.7930   28.1860 C.ar  268  PHE268     -0.0000
     48  N         39.2430   17.1260   33.2690 N.3   313  ASP313     -0.1239
     49  CA        40.1600   18.2070   32.9510 C.3   313  ASP313      0.1674
     50  C         41.3000   18.1540   33.9630 C.2   313  ASP313      0.2266
     51  O         41.4770   17.1370   34.6200 O.2   313  ASP313     -0.2867
     52  CB        39.4960   19.5850   32.9620 C.3   313  ASP313      0.1410
     53  CG        40.1730   20.5400   31.9850 C.2   313  ASP313      0.3668
     54  OD1       39.9370   20.4140   30.7630 O.co2 313  ASP313     -0.2456
     55  OD2       40.9680   21.3890   32.4280 O.co2 313  ASP313     -0.2456
     56  N         41.6320   20.0540   36.6980 N.3   315  HIS315     -0.1241
     57  CA        41.2530   20.5240   38.0240 C.3   315  HIS315      0.1621
     58  C         41.6280   19.5390   39.1340 C.2   315  HIS315      0.2264
     59  O         42.0490   19.9520   40.2130 O.2   315  HIS315     -0.2867
     60  CB        39.7560   20.8520   38.0400 C.3   315  HIS315      0.0745
     61  CG        39.3490   21.7740   36.9340 C.ar  315  HIS315      0.0817
     62  ND1       38.0360   21.9360   36.5370 N.ar  315  HIS315     -0.2268
     63  CD2       40.0800   22.5790   36.1270 C.ar  315  HIS315      0.1154
     64  CE1       37.9810   22.7970   35.5400 C.ar  315  HIS315      0.1986
     65  NE2       39.2110   23.2040   35.2690 N.ar  315  HIS315     -0.2212
     66  N         39.2820   19.2910   27.9330 N.3   351  HIS351     -0.1226
     67  CA        38.0560   19.9230   27.4550 C.3   351  HIS351      0.1752
     68  C         38.2100   21.2240   26.6750 C.2   351  HIS351      0.2596
     69  O         37.2120   21.8610   26.3590 O.2   351  HIS351     -0.2718
     70  CB        37.1120   20.1740   28.6350 C.3   351  HIS351      0.0759
     71  CG        36.6610   18.9260   29.3300 C.ar  351  HIS351      0.0818
     72  ND1       35.5040   18.2610   28.9910 N.ar  351  HIS351     -0.2268
     73  CD2       37.2130   18.2270   30.3510 C.ar  351  HIS351      0.1154
     74  CE1       35.3580   17.2070   29.7750 C.ar  351  HIS351      0.1986
     75  NE2       36.3820   17.1630   30.6090 N.ar  351  HIS351     -0.2212
     76  N         39.4360   21.6300   26.3580 N.am  352  THR352     -0.1953
     77  CA        39.6140   22.8680   25.6010 C.3   352  THR352      0.1897
     78  C         41.0440   23.1220   25.1550 C.2   352  THR352      0.2313
     79  O         41.9900   22.6650   25.7910 O.2   352  THR352     -0.2863
     80  CB        39.1430   24.1030   26.4060 C.3   352  THR352      0.1794
     81  OG1       39.2170   25.2720   25.5760 O.3   352  THR352     -0.2208
     82  CG2       40.0190   24.3040   27.6360 C.3   352  THR352      0.0378
     83  N         41.8270   26.4420   24.2410 N.3   354  LEU354     -0.1245
     84  CA        42.0470   27.8530   24.5310 C.3   354  LEU354      0.1561
     85  C         43.1320   27.9820   25.5960 C.2   354  LEU354      0.2260
     86  O         43.0150   27.4270   26.6910 O.2   354  LEU354     -0.2867
     87  CB        40.7470   28.5040   25.0100 C.3   354  LEU354      0.0270
     88  CG        39.6220   28.4930   23.9710 C.3   354  LEU354      0.0019
     89  CD1       38.3160   28.9470   24.6080 C.3   354  LEU354      0.0001
     90  CD2       40.0140   29.3880   22.8040 C.3   354  LEU354      0.0001
     91  N         42.6650   29.0230   29.3850 N.3   357  ALA357     -0.1245
     92  CA        41.8670   28.1040   30.1900 C.3   357  ALA357      0.1562
     93  C         42.7600   27.0130   30.7830 C.2   357  ALA357      0.2260
     94  O         42.3300   26.2420   31.6420 O.2   357  ALA357     -0.2867
     95  CB        40.7660   27.4760   29.3420 C.3   357  ALA357      0.0290
     96  N         37.1730   15.6190   23.4250 N.3   429  VAL429     -0.1245
     97  CA        35.7290   15.4260   23.5330 C.3   429  VAL429      0.1561
     98  C         34.8800   15.5040   22.2670 C.2   429  VAL429      0.2260
     99  O         33.6550   15.5460   22.3410 O.2   429  VAL429     -0.2867
    100  CB        35.1660   16.3890   24.5910 C.3   429  VAL429      0.0252
    101  CG1       35.6810   15.9850   25.9740 C.3   429  VAL429      0.0019
    102  CG2       35.5940   17.8190   24.2740 C.3   429  VAL429      0.0019
    103  N         31.4530   13.7680   23.1200 N.3   458  ASN458     -0.1240
    104  CA        30.4830   14.0460   24.1700 C.3   458  ASN458      0.1653
    105  C         29.0710   13.6120   23.7900 C.2   458  ASN458      0.2266
    106  O         28.7940   13.2610   22.6430 O.2   458  ASN458     -0.2867
    107  CB        30.4750   15.5500   24.4940 C.3   458  ASN458      0.1155
    108  CG        31.6410   15.9760   25.3980 C.2   458  ASN458      0.2627
    109  OD1       31.8880   17.1760   25.5890 O.2   458  ASN458     -0.2716
    110  ND2       32.3390   15.0070   25.9620 N.am  458  ASN458     -0.0877
    111  N         34.6820   33.8650   22.1070 N.3   547  TYR547     -0.1227
    112  CA        34.8480   32.7690   21.1660 C.3   547  TYR547      0.1736
    113  C         33.5300   32.1620   20.6930 C.2   547  TYR547      0.2595
    114  O         33.4630   31.6120   19.5950 O.2   547  TYR547     -0.2718
    115  CB        35.7980   31.6980   21.7420 C.3   547  TYR547      0.0548
    116  CG        35.1900   30.5750   22.5580 C.ar  547  TYR547     -0.0200
    117  CD1       34.6480   29.4460   21.9360 C.ar  547  TYR547     -0.0009
    118  CD2       35.2250   30.6050   23.9500 C.ar  547  TYR547     -0.0009
    119  CE1       34.1630   28.3750   22.6830 C.ar  547  TYR547      0.0417
    120  CE2       34.7440   29.5410   24.7080 C.ar  547  TYR547      0.0417
    121  CZ        34.2170   28.4290   24.0690 C.ar  547  TYR547      0.1957
    122  OH        33.7550   27.3700   24.8210 O.3   547  TYR547     -0.2866
    123  N         32.4810   32.2850   21.5010 N.am  548  LYS548     -0.1980
    124  CA        31.1700   31.7490   21.1290 C.3   548  LYS548      0.1596
    125  C         30.4640   32.6910   20.1430 C.2   548  LYS548      0.2287
    126  O         29.4430   32.3440   19.5370 O.2   548  LYS548     -0.2864
    127  CB        30.3150   31.5260   22.3820 C.3   548  LYS548      0.0298
    128  CG        30.8260   30.3760   23.2700 C.3   548  LYS548      0.0038
    129  CD        30.0240   30.2490   24.5600 C.3   548  LYS548      0.0206
    130  CE        30.5910   29.1840   25.4970 C.3   548  LYS548      0.1093
    131  NZ        30.4170   27.7990   24.9640 N.3   548  LYS548     -0.1314
    132  N         37.5940   26.5100   18.1030 N.3   645  THR645     -0.1203
    133  CA        37.5570   26.9980   19.4810 C.3   645  THR645      0.1994
    134  C         36.6250   26.2580   20.4450 C.2   645  THR645      0.2618
    135  O         36.9240   26.1530   21.6350 O.2   645  THR645     -0.2717
    136  CB        37.2140   28.5040   19.5110 C.3   645  THR645      0.1784
    137  OG1       35.8990   28.7070   18.9820 O.3   645  THR645     -0.2211
    138  CG2       38.2140   29.2870   18.6560 C.3   645  THR645      0.0376
    139  N         35.4970   25.7560   19.9480 N.am  646  GLU646     -0.1965
    140  CA        34.5570   25.0250   20.8040 C.3   646  GLU646      0.1733
    141  C         34.9460   23.5530   20.7360 C.2   646  GLU646      0.2616
    142  O         34.6770   22.8990   19.7370 O.2   646  GLU646     -0.2715
    143  CB        33.1200   25.2100   20.2940 C.3   646  GLU646      0.0429
    144  CG        32.0230   24.7390   21.2520 C.3   646  GLU646      0.1163
    145  CD        31.8820   25.6310   22.4780 C.2   646  GLU646      0.3649
    146  OE1       32.5210   25.3410   23.5110 O.co2 646  GLU646     -0.2457
    147  OE2       31.1370   26.6320   22.4090 O.co2 646  GLU646     -0.2457
    148  N         35.5750   23.0380   21.7950 N.am  647  ALA647     -0.1963
    149  CA        36.0300   21.6430   21.8290 C.3   647  ALA647      0.1728
    150  C         34.9570   20.6690   21.3500 C.2   647  ALA647      0.2617
    151  O         35.2140   19.8050   20.5100 O.2   647  ALA647     -0.2715
    152  CB        36.4850   21.2680   23.2390 C.3   647  ALA647      0.0334
    153  N         33.7490   20.8110   21.8780 N.am  648  SER648     -0.1936
    154  CA        32.6690   19.9350   21.4650 C.3   648  SER648      0.2055
    155  C         31.3410   20.6560   21.4020 C.2   648  SER648      0.2644
    156  O         30.7510   20.8140   20.3290 O.2   648  SER648     -0.2714
    157  CB        32.5460   18.7540   22.4290 C.3   648  SER648      0.2130
    158  OG        31.3620   18.0110   22.1670 O.3   648  SER648     -0.2179
    159  N         30.9030   21.1240   22.5660 N.am  649  GLY649     -0.1939
    160  CA        29.6100   21.7590   22.6870 C.3   649  GLY649      0.2014
    161  C         28.6710   20.6220   23.0620 C.2   649  GLY649      0.2639
    162  O         28.9090   19.4760   22.6760 O.2   649  GLY649     -0.2714
    163  N         27.6340   20.9080   23.8400 N.am  650  THR650     -0.1950
    164  CA        26.6610   19.8830   24.2140 C.3   650  THR650      0.1897
    165  C         25.2680   20.4790   24.0500 C.2   650  THR650      0.2313
    166  O         24.2950   19.7570   23.8210 O.2   650  THR650     -0.2863
    167  CB        26.8490   19.3890   25.6660 C.3   650  THR650      0.1794
    168  OG1       26.9190   20.5090   26.5520 O.3   650  THR650     -0.2208
    169  CG2       28.1110   18.5570   25.7810 C.3   650  THR650      0.0378
@<TRIPOS>BOND
     1   132   133    1
     2   138   136    1
     3   137   136    1
     4   133   136    1
     5   133   134    1
     6   126   125    2
     7   114   113    2
     8   142   141    2
     9   139   134   am
    10   139   140    1
    11   125   124    1
    12   143   140    1
    13   143   144    1
    14   156   155    2
    15   134   135    2
    16   151   150    2
    17   113   112    1
    18   113   123   am
    19   141   140    1
    20   141   148   am
    21   124   123    1
    22   124   127    1
    23   112   115    1
    24   112   111    1
    25   144   145    1
    26   150   149    1
    27   150   153   am
    28   155   154    1
    29   155   159   am
    30   154   153    1
    31   154   157    1
    32   115   116    1
    33   148   149    1
    34   149   152    1
    35   117   116   ar
    36   117   119   ar
    37   158   157    1
    38    98    99    2
    39    98    97    1
    40   127   128    1
    41   147   145   ar
    42   145   146   ar
    43   116   118   ar
    44   159   160    1
    45   106   105    2
    46   162   161    2
    47   119   121   ar
    48   160   161    1
    49    90    88    1
    50   161   163   am
    51   103   104    1
    52   128   129    1
    53    96    97    1
    54    97   100    1
    55   105   104    1
    56   166   165    2
    57   163   164    1
    58   118   120   ar
    59    88    89    1
    60    88    87    1
    61   165   164    1
    62   121   120   ar
    63   121   122    1
    64   104   107    1
    65   164   167    1
    66    83    84    1
    67   102   100    1
    68   107   108    1
    69    84    87    1
    70    84    85    1
    71   129   130    1
    72   100   101    1
    73   131   130    1
    74    78    77    1
    75    78    79    2
    76   108   109    2
    77   108   110   am
    78    81    80    1
    79    85    86    2
    80    77    76    1
    81    77    80    1
    82   167   169    1
    83   167   168    1
    84    76    68   am
    85    69    68    2
    86    80    82    1
    87    68    67    1
    88    67    66    1
    89    67    70    1
    90    47    46   ar
    91    47    45   ar
    92    46    44   ar
    93    19    18    1
    94    70    71    1
    95    72    71   ar
    96    72    74   ar
    97    71    73   ar
    98    95    92    1
    99    20    18    1
   100    45    43   ar
   101    91    92    1
   102    44    42   ar
   103     2     1    1
   104     2     3    1
   105    18    17    1
   106    74    75   ar
   107    28    26   ar
   108    92    93    1
   109    73    75   ar
   110     4     3    2
   111     3     5   am
   112    17    14    1
   113    43    42   ar
   114    42    41    1
   115    54    53   ar
   116    93    94    2
   117     5     6    1
   118    26    27   ar
   119    26    25    1
   120    14    13    1
   121    14    15    1
   122     6     9    1
   123     6     7    1
   124    24    23    2
   125    41    38    1
   126    25    22    1
   127    53    55   ar
   128    53    52    1
   129    16    15    2
   130     9    10    1
   131    38    37    1
   132    38    39    1
   133    11    10    1
   134    32    31    2
   135    10    12    1
   136     7     8    2
   137    49    52    1
   138    49    48    1
   139    49    50    1
   140    23    22    1
   141    23    29   am
   142    37    31   am
   143    22    21    1
   144    31    30    1
   145    33    30    1
   146    33    34    1
   147    39    40    2
   148    50    51    2
   149    30    29    1
   150    36    34   am
   151    34    35    2
   152    65    64   ar
   153    65    63   ar
   154    64    62   ar
   155    63    61   ar
   156    62    61   ar
   157    56    57    1
   158    61    60    1
   159    57    60    1
   160    57    58    1
   161    58    59    2
