@<TRIPOS>MOLECULE
tmp/1xc9C01.pdb
 125 117 0 0 0
SMALL
GASTEIGER

@<TRIPOS>ATOM
      1  N         11.3480   31.7250   26.3980 N.3   315  THR315     -0.1218
      2  CA        10.9330   31.8630   27.7940 C.3   315  THR315      0.1862
      3  C          9.5710   31.3040   28.1660 C.2   315  THR315      0.2287
      4  O          8.6300   31.3220   27.3730 O.2   315  THR315     -0.2866
      5  CB        10.9700   33.3330   28.2300 C.3   315  THR315      0.1770
      6  OG1        9.8930   34.0350   27.6040 O.3   315  THR315     -0.2211
      7  CG2       12.2970   33.9710   27.8200 C.3   315  THR315      0.0375
      8  N          7.7370   32.5830   30.3640 N.3   317  THR317     -0.1218
      9  CA         6.8830   33.6880   30.7810 C.3   317  THR317      0.1862
     10  C          6.3340   34.5030   29.6110 C.2   317  THR317      0.2287
     11  O          5.3880   35.2640   29.7770 O.2   317  THR317     -0.2866
     12  CB         7.6280   34.6410   31.7330 C.3   317  THR317      0.1770
     13  OG1        8.8220   35.1150   31.1030 O.3   317  THR317     -0.2211
     14  CG2        7.9840   33.9220   33.0290 C.3   317  THR317      0.0375
     15  N          8.3220   36.5500   27.8190 N.3   319  ARG319     -0.1231
     16  CA         9.2300   37.6730   27.5990 C.3   319  ARG319      0.1694
     17  C         10.1870   37.2890   26.4680 C.2   319  ARG319      0.2591
     18  O         10.4210   36.1070   26.2150 O.2   319  ARG319     -0.2718
     19  CB        10.0510   37.9840   28.8630 C.3   319  ARG319      0.0321
     20  CG         9.2880   38.6850   29.9950 C.3   319  ARG319      0.0489
     21  CD        10.2250   39.0020   31.1650 C.3   319  ARG319      0.2205
     22  NE         9.5300   39.5180   32.3470 N.pl3 319  ARG319     -0.0865
     23  CZ         9.0780   40.7650   32.4910 C.cat 319  ARG319      0.5346
     24  NH1        9.2370   41.6600   31.5240 N.pl3 319  ARG319      0.1354
     25  NH2        8.4680   41.1230   33.6170 N.pl3 319  ARG319      0.1354
     26  N         10.7270   38.2890   25.7870 N.am  320  LEU320     -0.1980
     27  CA        11.6700   38.0570   24.7040 C.3   320  LEU320      0.1596
     28  C         13.0560   37.9480   25.3190 C.2   320  LEU320      0.2287
     29  O         13.2680   38.4030   26.4410 O.2   320  LEU320     -0.2864
     30  CB        11.6790   39.2510   23.7440 C.3   320  LEU320      0.0297
     31  CG        10.3980   39.6860   23.0400 C.3   320  LEU320      0.0022
     32  CD1       10.6540   40.9790   22.2860 C.3   320  LEU320      0.0001
     33  CD2        9.9430   38.5890   22.0850 C.3   320  LEU320      0.0001
     34  N         20.1200   42.8690   26.7150 N.3   328  GLN328     -0.1245
     35  CA        19.2460   42.9450   27.8660 C.3   328  GLN328      0.1566
     36  C         19.9720   42.8720   29.2030 C.2   328  GLN328      0.2260
     37  O         19.3400   42.8240   30.2560 O.2   328  GLN328     -0.2867
     38  CB        18.1540   41.8760   27.7310 C.3   328  GLN328      0.0367
     39  CG        17.2580   42.1790   26.5220 C.3   328  GLN328      0.0905
     40  CD        16.2520   41.0980   26.1730 C.2   328  GLN328      0.2608
     41  OE1       15.4160   41.2860   25.2830 O.2   328  GLN328     -0.2717
     42  NE2       16.3240   39.9640   26.8600 N.am  328  GLN328     -0.0878
     43  N          6.8930   50.2000   37.2200 N.3   360  GLN360     -0.1245
     44  CA         6.2960   49.1610   38.0620 C.3   360  GLN360      0.1566
     45  C          5.1390   48.4350   37.3800 C.2   360  GLN360      0.2260
     46  O          4.0920   48.2210   37.9890 O.2   360  GLN360     -0.2867
     47  CB         5.8010   49.7610   39.3840 C.3   360  GLN360      0.0367
     48  CG         6.8440   50.5770   40.1550 C.3   360  GLN360      0.0905
     49  CD         8.0020   49.7440   40.6830 C.2   360  GLN360      0.2608
     50  OE1        9.0120   50.2890   41.1380 O.2   360  GLN360     -0.2717
     51  NE2        7.8610   48.4280   40.6370 N.am  360  GLN360     -0.0878
     52  N          4.8540   45.3150   36.7040 N.3   362  GLU362     -0.1245
     53  CA         4.5670   44.0370   37.3760 C.3   362  GLU362      0.1567
     54  C          3.6680   44.2000   38.6100 C.2   362  GLU362      0.2260
     55  O          2.7400   43.4180   38.8190 O.2   362  GLU362     -0.2867
     56  CB         5.8520   43.3250   37.8160 C.3   362  GLU362      0.0388
     57  CG         6.7700   42.8650   36.6760 C.3   362  GLU362      0.1160
     58  CD         7.4750   44.0180   35.9870 C.2   362  GLU362      0.3649
     59  OE1        7.6130   45.0920   36.6080 O.co2 362  GLU362     -0.2457
     60  OE2        7.9190   43.8460   34.8320 O.co2 362  GLU362     -0.2457
     61  N          9.0690   42.7420   45.5880 N.3   414  PHE414     -0.1241
     62  CA         9.5300   41.9590   44.4570 C.3   414  PHE414      0.1605
     63  C          9.6050   40.4570   44.7110 C.2   414  PHE414      0.2264
     64  O          9.6790   39.6690   43.7690 O.2   414  PHE414     -0.2867
     65  CB        10.8810   42.5060   43.9990 C.3   414  PHE414      0.0534
     66  CG        10.7850   43.8590   43.3480 C.ar  414  PHE414     -0.0203
     67  CD1       11.8740   44.7220   43.3300 C.ar  414  PHE414     -0.0042
     68  CD2        9.5970   44.2670   42.7380 C.ar  414  PHE414     -0.0042
     69  CE1       11.7840   45.9730   42.7140 C.ar  414  PHE414     -0.0003
     70  CE2        9.4970   45.5100   42.1220 C.ar  414  PHE414     -0.0003
     71  CZ        10.5930   46.3660   42.1100 C.ar  414  PHE414     -0.0000
     72  N          7.0630   38.7290   42.8070 N.3   417  VAL417     -0.1231
     73  CA         7.3070   38.9540   41.3900 C.3   417  VAL417      0.1692
     74  C          8.4280   38.0370   40.8900 C.2   417  VAL417      0.2592
     75  O          8.2950   37.3950   39.8490 O.2   417  VAL417     -0.2718
     76  CB         7.6870   40.4270   41.1250 C.3   417  VAL417      0.0266
     77  CG1        8.0690   40.6130   39.6720 C.3   417  VAL417      0.0020
     78  CG2        6.5170   41.3350   41.4750 C.3   417  VAL417      0.0020
     79  N          9.5290   37.9810   41.6360 N.am  418  TYR418     -0.1976
     80  CA        10.6640   37.1320   41.2790 C.3   418  TYR418      0.1639
     81  C         10.2980   35.6570   41.4360 C.2   418  TYR418      0.2290
     82  O         10.8020   34.7970   40.7050 O.2   418  TYR418     -0.2864
     83  CB        11.8660   37.4500   42.1760 C.3   418  TYR418      0.0560
     84  CG        12.6800   38.6450   41.7300 C.ar  418  TYR418     -0.0198
     85  CD1       13.7100   38.5020   40.7980 C.ar  418  TYR418     -0.0009
     86  CD2       12.4090   39.9220   42.2230 C.ar  418  TYR418     -0.0009
     87  CE1       14.4510   39.6010   40.3680 C.ar  418  TYR418      0.0417
     88  CE2       13.1400   41.0300   41.7960 C.ar  418  TYR418      0.0417
     89  CZ        14.1580   40.8620   40.8680 C.ar  418  TYR418      0.1957
     90  OH        14.8740   41.9540   40.4340 O.3   418  TYR418     -0.2866
     91  N          3.8790   33.7570   39.9670 N.3   497  ASN497     -0.1240
     92  CA         4.5510   34.8080   39.2100 C.3   497  ASN497      0.1653
     93  C          4.3030   34.8440   37.7030 C.2   497  ASN497      0.2266
     94  O          4.4600   35.8900   37.0770 O.2   497  ASN497     -0.2867
     95  CB         6.0570   34.7540   39.4880 C.3   497  ASN497      0.1155
     96  CG         6.8170   33.9660   38.4430 C.2   497  ASN497      0.2627
     97  OD1        6.4450   32.8460   38.1010 O.2   497  ASN497     -0.2716
     98  ND2        7.8940   34.5510   37.9290 N.am  497  ASN497     -0.0877
     99  N          4.3930   38.2470   35.5550 N.3   501  GLN501     -0.1245
    100  CA         5.4550   38.4330   34.5590 C.3   501  GLN501      0.1566
    101  C          4.9110   38.2440   33.1450 C.2   501  GLN501      0.2260
    102  O          5.2280   39.0130   32.2330 O.2   501  GLN501     -0.2867
    103  CB         6.5740   37.4140   34.7970 C.3   501  GLN501      0.0367
    104  CG         7.2940   37.5860   36.1130 C.3   501  GLN501      0.0905
    105  CD         8.2530   38.7470   36.0810 C.2   501  GLN501      0.2608
    106  OE1        9.1970   38.7610   35.2890 O.2   501  GLN501     -0.2717
    107  NE2        8.0160   39.7370   36.9340 N.am  501  GLN501     -0.0878
    108  N         13.7480   44.3860   29.0300 N.3   533  HIS533     -0.1226
    109  CA        13.0310   44.4650   30.2900 C.3   533  HIS533      0.1752
    110  C         11.6400   45.0260   30.0060 C.2   533  HIS533      0.2596
    111  O         10.9130   44.4710   29.1800 O.2   533  HIS533     -0.2718
    112  CB        13.8200   45.3410   31.2660 C.3   533  HIS533      0.0759
    113  CG        15.1870   44.8040   31.5730 C.ar  533  HIS533      0.0818
    114  ND1       15.3850   43.6130   32.2410 N.ar  533  HIS533     -0.2268
    115  CD2       16.4200   45.2670   31.2570 C.ar  533  HIS533      0.1154
    116  CE1       16.6800   43.3640   32.3200 C.ar  533  HIS533      0.1986
    117  NE2       17.3310   44.3520   31.7300 N.ar  533  HIS533     -0.2212
    118  N         11.2640   46.1140   30.6670 N.am  534  ASP534     -0.1974
    119  CA         9.9440   46.6960   30.4380 C.3   534  ASP534      0.1709
    120  C         10.0450   47.9930   29.6560 C.2   534  ASP534      0.2293
    121  O          9.2550   48.9070   29.8630 O.2   534  ASP534     -0.2864
    122  CB         9.2290   46.9780   31.7630 C.3   534  ASP534      0.1436
    123  CG         9.0410   45.7310   32.6030 C.2   534  ASP534      0.3671
    124  OD1        8.8280   44.6480   32.0210 O.co2 534  ASP534     -0.2456
    125  OD2        9.0930   45.8360   33.8520 O.co2 534  ASP534     -0.2456
@<TRIPOS>BOND
     1    33    31    1
     2    32    31    1
     3    31    30    1
     4    30    27    1
     5    27    28    1
     6    27    26    1
     7    41    40    2
     8    28    29    2
     9    26    17   am
    10    40    39    1
    11    40    42   am
    12    18    17    2
    13     1     2    1
    14    17    16    1
    15    39    38    1
    16    34    35    1
    17     4     3    2
    18    16    15    1
    19    16    19    1
    20     6     5    1
    21    38    35    1
    22     2     3    1
    23     2     5    1
    24     7     5    1
    25    35    36    1
    26    19    20    1
    27   108   109    1
    28   111   110    2
    29    36    37    2
    30    10    11    2
    31    10     9    1
    32   120   121    2
    33   120   119    1
    34    20    21    1
    35   110   109    1
    36   110   118   am
    37   109   112    1
    38     8     9    1
    39   119   118    1
    40   119   122    1
    41     9    12    1
    42    13    12    1
    43    21    22    1
    44   115   113   ar
    45   115   117   ar
    46   112   113    1
    47    24    23    1
    48   113   114   ar
    49   117   116   ar
    50    12    14    1
    51   122   123    1
    52   124   123   ar
    53   102   101    2
    54   114   116   ar
    55    22    23    2
    56    23    25    1
    57   123   125   ar
    58   101   100    1
    59   100   103    1
    60   100    99    1
    61   103   104    1
    62    60    58   ar
    63   106   105    2
    64    58    59   ar
    65    58    57    1
    66   105   104    1
    67   105   107   am
    68    57    56    1
    69    52    53    1
    70    94    93    2
    71    43    44    1
    72    53    56    1
    73    53    54    1
    74    45    46    2
    75    45    44    1
    76    93    92    1
    77    98    96   am
    78    44    47    1
    79    97    96    2
    80    96    95    1
    81    54    55    2
    82    92    95    1
    83    92    91    1
    84    47    48    1
    85    77    76    1
    86    75    74    2
    87    48    49    1
    88    87    85   ar
    89    87    89   ar
    90    90    89    1
    91    51    49   am
    92    49    50    2
    93    82    81    2
    94    85    84   ar
    95    89    88   ar
    96    74    73    1
    97    74    79   am
    98    76    73    1
    99    76    78    1
   100    80    81    1
   101    80    79    1
   102    80    83    1
   103    73    72    1
   104    84    83    1
   105    84    86   ar
   106    88    86   ar
   107    71    70   ar
   108    71    69   ar
   109    70    68   ar
   110    69    67   ar
   111    68    66   ar
   112    67    66   ar
   113    66    65    1
   114    64    63    2
   115    65    62    1
   116    62    63    1
   117    62    61    1
