@<TRIPOS>MOLECULE
tmp/1xckE01.pdb
 84 77 0 0 0
SMALL
GASTEIGER

@<TRIPOS>ATOM
      1  N        -33.8590   71.7740   69.0060 N.3   135  VAL135     -0.1231
      2  CA       -33.9050   72.5180   70.2690 C.3   135  VAL135      0.1678
      3  C        -33.7300   73.9850   69.8820 C.2   135  VAL135      0.2434
      4  O        -32.8380   74.3230   69.0900 O.2   135  VAL135     -0.2733
      5  CB       -32.7450   72.1480   71.1870 C.3   135  VAL135      0.0265
      6  CG1      -32.8030   72.9850   72.4390 C.3   135  VAL135      0.0020
      7  CG2      -32.7850   70.6670   71.4980 C.3   135  VAL135      0.0020
      8  N        -34.5600   74.8780   70.4400 N.am  136  PRO136     -0.2718
      9  CA       -34.5040   76.3190   70.1430 C.3   136  PRO136      0.1535
     10  C        -33.2820   77.0650   70.6520 C.2   136  PRO136      0.2598
     11  O        -32.6770   76.7070   71.6630 O.2   136  PRO136     -0.2715
     12  CB       -35.7790   76.8650   70.7780 C.3   136  PRO136      0.0310
     13  CG       -36.6640   75.6310   70.9460 C.3   136  PRO136      0.0237
     14  CD       -35.6820   74.5670   71.3360 C.3   136  PRO136      0.0939
     15  N        -32.9300   78.1170   69.9270 N.am  137  CYS137     -0.1968
     16  CA       -31.8090   78.9700   70.2960 C.3   137  CYS137      0.1712
     17  C        -32.3210   80.4160   70.2550 C.2   137  CYS137      0.2296
     18  O        -32.2400   81.0740   69.2180 O.2   137  CYS137     -0.2864
     19  CB       -30.6640   78.7770   69.3050 C.3   137  CYS137      0.0983
     20  SG       -29.2160   79.7930   69.6520 S.3   137  CYS137     -0.0798
     21  N        -28.1730   81.2510   75.1920 N.3   142  ALA142     -0.1245
     22  CA       -28.0390   80.1490   74.2540 C.3   142  ALA142      0.1562
     23  C        -27.2080   80.5840   73.0430 C.2   142  ALA142      0.2260
     24  O        -26.3210   79.8520   72.5860 O.2   142  ALA142     -0.2867
     25  CB       -29.4220   79.6870   73.8120 C.3   142  ALA142      0.0290
     26  N        -23.7250   80.3970   73.7270 N.3   145  GLN145     -0.1231
     27  CA       -23.2710   79.0180   73.7960 C.3   145  GLN145      0.1698
     28  C        -23.0030   78.4690   72.4050 C.2   145  GLN145      0.2592
     29  O        -21.9390   77.9030   72.1480 O.2   145  GLN145     -0.2718
     30  CB       -24.3110   78.1430   74.4900 C.3   145  GLN145      0.0381
     31  CG       -24.8490   78.6920   75.8110 C.3   145  GLN145      0.0905
     32  CD       -25.5910   77.6260   76.6320 C.2   145  GLN145      0.2608
     33  OE1      -26.4900   77.9350   77.4300 O.2   145  GLN145     -0.2717
     34  NE2      -25.2000   76.3640   76.4440 N.am  145  GLN145     -0.0878
     35  N        -23.9730   78.6280   71.5100 N.am  146  VAL146     -0.1980
     36  CA       -23.8170   78.1470   70.1410 C.3   146  VAL146      0.1595
     37  C        -22.6200   78.8340   69.4800 C.2   146  VAL146      0.2287
     38  O        -21.8640   78.1930   68.7490 O.2   146  VAL146     -0.2864
     39  CB       -25.0780   78.4170   69.2950 C.3   146  VAL146      0.0276
     40  CG1      -24.8940   77.8730   67.9000 C.3   146  VAL146      0.0022
     41  CG2      -26.2820   77.7710   69.9370 C.3   146  VAL146      0.0022
     42  N        -19.3590   77.2570   70.7850 N.3   149  ILE149     -0.1245
     43  CA       -19.1110   75.9330   70.2130 C.3   149  ILE149      0.1561
     44  C        -18.6200   76.0560   68.7730 C.2   149  ILE149      0.2260
     45  O        -17.6780   75.3720   68.3570 O.2   149  ILE149     -0.2867
     46  CB       -20.3940   75.0690   70.2370 C.3   149  ILE149      0.0252
     47  CG1      -20.7290   74.6810   71.6760 C.3   149  ILE149      0.0019
     48  CG2      -20.2120   73.8200   69.3840 C.3   149  ILE149      0.0019
     49  CD1      -22.0400   73.9420   71.8010 C.3   149  ILE149      0.0001
     50  N        -31.1140   73.9790   66.8780 N.3   410  VAL410     -0.1245
     51  CA       -29.9960   73.0530   66.7410 C.3   410  VAL410      0.1561
     52  C        -30.4360   71.6040   66.9810 C.2   410  VAL410      0.2260
     53  O        -31.4370   71.3450   67.6590 O.2   410  VAL410     -0.2867
     54  CB       -28.8490   73.3730   67.7540 C.3   410  VAL410      0.0252
     55  CG1      -28.3160   74.7740   67.5270 C.3   410  VAL410      0.0019
     56  CG2      -29.3570   73.2110   69.1970 C.3   410  VAL410      0.0019
     57  N        -26.2160   67.1020   72.4520 N.3   488  ILE488     -0.1231
     58  CA       -26.2810   68.5290   72.7470 C.3   488  ILE488      0.1692
     59  C        -25.5290   68.8230   74.0310 C.2   488  ILE488      0.2592
     60  O        -24.7370   69.7660   74.0930 O.2   488  ILE488     -0.2718
     61  CB       -27.7230   69.0330   72.9130 C.3   488  ILE488      0.0266
     62  CG1      -28.6020   68.5520   71.7570 C.3   488  ILE488      0.0019
     63  CG2      -27.7260   70.5530   72.9100 C.3   488  ILE488      0.0020
     64  CD1      -28.2760   69.1920   70.4310 C.3   488  ILE488      0.0001
     65  N        -25.7870   68.0230   75.0590 N.am  489  ASP489     -0.1974
     66  CA       -25.1030   68.1960   76.3330 C.3   489  ASP489      0.1709
     67  C        -23.5960   68.1320   76.1180 C.2   489  ASP489      0.2293
     68  O        -22.8490   68.9570   76.6500 O.2   489  ASP489     -0.2864
     69  CB       -25.5100   67.1050   77.3230 C.3   489  ASP489      0.1436
     70  CG       -26.9380   67.2600   77.8060 C.2   489  ASP489      0.3671
     71  OD1      -27.5890   68.2760   77.4440 O.co2 489  ASP489     -0.2456
     72  OD2      -27.4000   66.3610   78.5530 O.co2 489  ASP489     -0.2456
     73  N        -22.0800   69.0400   73.7600 N.3   491  GLY491     -0.1225
     74  CA       -21.6930   70.1490   72.8970 C.3   491  GLY491      0.1811
     75  C        -21.3490   69.8270   71.4460 C.2   491  GLY491      0.2280
     76  O        -20.5580   70.5400   70.8100 O.2   491  GLY491     -0.2866
     77  N        -23.1820   69.6710   68.1880 N.3   493  LEU493     -0.1245
     78  CA       -24.4210   69.9610   67.4900 C.3   493  LEU493      0.1561
     79  C        -24.2390   70.6030   66.1260 C.2   493  LEU493      0.2260
     80  O        -23.1220   70.9480   65.7340 O.2   493  LEU493     -0.2867
     81  CB       -25.2760   70.8670   68.3800 C.3   493  LEU493      0.0270
     82  CG       -24.5360   72.0540   69.0110 C.3   493  LEU493      0.0019
     83  CD1      -24.2460   73.1100   67.9540 C.3   493  LEU493      0.0001
     84  CD2      -25.3790   72.6510   70.1130 C.3   493  LEU493      0.0001
@<TRIPOS>BOND
     1    80    79    2
     2    79    78    1
     3    51    50    1
     4    51    52    1
     5    51    54    1
     6    52    53    2
     7    78    77    1
     8    78    81    1
     9    55    54    1
    10    54    56    1
    11    40    39    1
    12    83    82    1
    13    45    44    2
    14    81    82    1
    15    38    37    2
    16    44    43    1
    17     1     2    1
    18    82    84    1
    19     4     3    2
    20    18    17    2
    21    39    41    1
    22    39    36    1
    23    19    20    1
    24    19    16    1
    25    48    46    1
    26    37    36    1
    27     3     2    1
    28     3     8   am
    29    15    16    1
    30    15    10   am
    31    36    35    1
    32     9     8    1
    33     9    10    1
    34     9    12    1
    35    43    46    1
    36    43    42    1
    37    46    47    1
    38    17    16    1
    39     2     5    1
    40    64    62    1
    41     8    14    1
    42    10    11    2
    43    12    13    1
    44    76    75    2
    45    13    14    1
    46     5     7    1
    47     5     6    1
    48    75    74    1
    49    35    28   am
    50    47    49    1
    51    62    61    1
    52    29    28    2
    53    28    27    1
    54    57    58    1
    55    24    23    2
    56    58    61    1
    57    58    59    1
    58    74    73    1
    59    63    61    1
    60    23    22    1
    61    26    27    1
    62    27    30    1
    63    25    22    1
    64    59    60    2
    65    59    65   am
    66    22    21    1
    67    30    31    1
    68    65    66    1
    69    31    32    1
    70    67    66    1
    71    67    68    2
    72    66    69    1
    73    34    32   am
    74    32    33    2
    75    69    70    1
    76    71    70   ar
    77    70    72   ar
