@<TRIPOS>MOLECULE
tmp/1xckD01.pdb
 74 69 0 0 0
SMALL
GASTEIGER

@<TRIPOS>ATOM
      1  N        -33.8120  102.8420   18.7510 N.3   218  PHE218     -0.1241
      2  CA       -34.0650  103.7930   17.6800 C.3   218  PHE218      0.1605
      3  C        -34.3450  102.9170   16.4720 C.2   218  PHE218      0.2264
      4  O        -33.7770  101.8360   16.3410 O.2   218  PHE218     -0.2867
      5  CB       -32.8340  104.6600   17.4140 C.3   218  PHE218      0.0534
      6  CG       -32.6860  105.8070   18.3570 C.ar  218  PHE218     -0.0203
      7  CD1      -33.6010  106.8460   18.3480 C.ar  218  PHE218     -0.0042
      8  CD2      -31.6260  105.8530   19.2460 C.ar  218  PHE218     -0.0042
      9  CE1      -33.4630  107.9160   19.2080 C.ar  218  PHE218     -0.0003
     10  CE2      -31.4780  106.9190   20.1110 C.ar  218  PHE218     -0.0003
     11  CZ       -32.3980  107.9530   20.0920 C.ar  218  PHE218     -0.0000
     12  N        -43.7890  105.0050   14.7100 N.3   295  THR295     -0.1203
     13  CA       -42.6310  105.2410   15.5740 C.3   295  THR295      0.1994
     14  C        -42.1000  106.6740   15.5390 C.2   295  THR295      0.2618
     15  O        -41.0350  106.9680   16.1020 O.2   295  THR295     -0.2717
     16  CB       -41.4740  104.2990   15.2080 C.3   295  THR295      0.1784
     17  OG1      -41.0590  104.5540   13.8630 O.3   295  THR295     -0.2211
     18  CG2      -41.9140  102.8490   15.3280 C.3   295  THR295      0.0376
     19  N        -42.8450  107.5640   14.8860 N.am  296  GLY296     -0.1956
     20  CA       -42.4280  108.9500   14.7770 C.3   296  GLY296      0.1869
     21  C        -41.0770  109.0900   14.1040 C.2   296  GLY296      0.2309
     22  O        -40.2820  109.9460   14.4780 O.2   296  GLY296     -0.2863
     23  N        -38.6730  108.7670   10.2060 N.3   298  THR298     -0.1218
     24  CA       -38.7510  109.2330    8.8290 C.3   298  THR298      0.1862
     25  C        -38.1170  108.2220    7.8840 C.2   298  THR298      0.2287
     26  O        -36.9890  107.7780    8.1040 O.2   298  THR298     -0.2866
     27  CB       -38.0350  110.5810    8.6580 C.3   298  THR298      0.1770
     28  OG1      -38.4810  111.4930    9.6690 O.3   298  THR298     -0.2211
     29  CG2      -38.3410  111.1650    7.2950 C.3   298  THR298      0.0375
     30  N        -30.2610  111.4980   14.0710 N.3   313  LEU313     -0.1231
     31  CA       -30.9950  110.8200   15.1270 C.3   313  LEU313      0.1693
     32  C        -32.4770  111.1460   15.1240 C.2   313  LEU313      0.2591
     33  O        -33.2880  110.3560   15.6040 O.2   313  LEU313     -0.2718
     34  CB       -30.4300  111.1830   16.4960 C.3   313  LEU313      0.0284
     35  CG       -29.4610  110.1860   17.1250 C.3   313  LEU313      0.0019
     36  CD1      -29.0640  110.6760   18.5030 C.3   313  LEU313      0.0001
     37  CD2      -30.1150  108.8270   17.2280 C.3   313  LEU313      0.0001
     38  N        -32.8450  112.3040   14.5940 N.am  314  GLU314     -0.1979
     39  CA       -34.2480  112.6690   14.5850 C.3   314  GLU314      0.1602
     40  C        -35.0490  111.9760   13.4960 C.2   314  GLU314      0.2287
     41  O        -36.2670  111.8490   13.6080 O.2   314  GLU314     -0.2864
     42  CB       -34.4120  114.1760   14.4570 C.3   314  GLU314      0.0415
     43  CG       -35.8680  114.5790   14.4970 C.3   314  GLU314      0.1163
     44  CD       -36.0730  116.0660   14.4190 C.2   314  GLU314      0.3649
     45  OE1      -35.5660  116.6940   13.4590 O.co2 314  GLU314     -0.2457
     46  OE2      -36.7510  116.6020   15.3200 O.co2 314  GLU314     -0.2457
     47  N        -34.7520  108.9620   12.8420 N.3   316  LEU316     -0.1231
     48  CA       -34.9880  107.6590   13.4440 C.3   316  LEU316      0.1693
     49  C        -36.2950  107.5770   14.1920 C.2   316  LEU316      0.2593
     50  O        -36.7450  108.5520   14.7800 O.2   316  LEU316     -0.2718
     51  CB       -33.8430  107.3190   14.3950 C.3   316  LEU316      0.0284
     52  CG       -32.6180  106.6410   13.7830 C.3   316  LEU316      0.0019
     53  CD1      -32.3030  107.2330   12.4230 C.3   316  LEU316      0.0001
     54  CD2      -31.4470  106.7700   14.7390 C.3   316  LEU316      0.0001
     55  N        -36.8970  106.3950   14.1600 N.am  317  GLY317     -0.1942
     56  CA       -38.1500  106.1640   14.8530 C.3   317  GLY317      0.2014
     57  C        -37.8340  105.6930   16.2550 C.2   317  GLY317      0.2638
     58  O        -36.6710  105.4720   16.5910 O.2   317  GLY317     -0.2714
     59  N        -38.8520  105.5030   17.0790 N.am  318  GLN318     -0.1977
     60  CA       -38.5740  105.0920   18.4410 C.3   318  GLN318      0.1601
     61  C        -39.7510  104.4230   19.1250 C.2   318  GLN318      0.2287
     62  O        -40.8960  104.8070   18.9160 O.2   318  GLN318     -0.2864
     63  CB       -38.1430  106.3280   19.2070 C.3   318  GLN318      0.0394
     64  CG       -37.5170  106.0810   20.5370 C.3   318  GLN318      0.0908
     65  CD       -36.6220  107.2350   20.9170 C.2   318  GLN318      0.2608
     66  OE1      -36.9600  108.4040   20.6660 O.2   318  GLN318     -0.2717
     67  NE2      -35.4700  106.9230   21.5250 N.am  318  GLN318     -0.0878
     68  N        -43.5330  106.0080   19.5150 N.3   335  VAL335     -0.1245
     69  CA       -43.5950  107.3930   19.9540 C.3   335  VAL335      0.1561
     70  C        -44.4650  108.3000   19.0800 C.2   335  VAL335      0.2260
     71  O        -44.8410  109.3910   19.5020 O.2   335  VAL335     -0.2867
     72  CB       -42.1840  107.9880   20.0370 C.3   335  VAL335      0.0252
     73  CG1      -42.2480  109.3980   20.5960 C.3   335  VAL335      0.0019
     74  CG2      -41.3150  107.1170   20.9080 C.3   335  VAL335      0.0019
@<TRIPOS>BOND
     1    29    27    1
     2    25    26    2
     3    25    24    1
     4    27    24    1
     5    27    28    1
     6    24    23    1
     7    53    52    1
     8    47    48    1
     9    48    49    1
    10    48    51    1
    11    45    44   ar
    12    40    41    2
    13    40    39    1
    14    52    51    1
    15    52    54    1
    16    17    16    1
    17    30    31    1
    18    21    22    2
    19    21    20    1
    20    55    49   am
    21    55    56    1
    22    49    50    2
    23    44    43    1
    24    44    46   ar
    25    42    43    1
    26    42    39    1
    27    39    38    1
    28    38    32   am
    29    12    13    1
    30    20    19    1
    31    56    57    1
    32    19    14   am
    33    32    31    1
    34    32    33    2
    35    31    34    1
    36    16    18    1
    37    16    13    1
    38    14    13    1
    39    14    15    2
    40    57    58    2
    41    57    59   am
    42     4     3    2
    43     3     2    1
    44    34    35    1
    45    59    60    1
    46    35    37    1
    47    35    36    1
    48     5     2    1
    49     5     6    1
    50     2     1    1
    51     7     6   ar
    52     7     9   ar
    53     6     8   ar
    54    60    61    1
    55    60    63    1
    56    62    61    2
    57    70    71    2
    58    70    69    1
    59    63    64    1
    60     9    11   ar
    61     8    10   ar
    62    68    69    1
    63    69    72    1
    64    72    73    1
    65    72    74    1
    66    11    10   ar
    67    64    65    1
    68    66    65    2
    69    65    67   am
