@<TRIPOS>MOLECULE
tmp/1xcpA00.pdb
 152 145 0 0 0
SMALL
GASTEIGER

@<TRIPOS>ATOM
      1  N         36.3750    4.3490    3.6600 N.3    11  GLY11      -0.1210
      2  CA        37.3710    4.2210    2.6240 C.3    11  GLY11       0.1956
      3  C         37.6240    2.7560    2.2560 C.2    11  GLY11       0.2612
      4  O         37.8800    1.8960    3.1030 O.2    11  GLY11      -0.2717
      5  N         37.4680    2.4890    0.9580 N.am   12  GLY12      -0.1942
      6  CA        37.7580    1.1890    0.4190 C.3    12  GLY12       0.2014
      7  C         36.5460    0.4040   -0.0260 C.2    12  GLY12       0.2639
      8  O         36.6950   -0.3410   -1.0030 O.2    12  GLY12      -0.2714
      9  N         35.3580    0.5990    0.6000 N.am   13  ILE13      -0.1963
     10  CA        34.1950   -0.2640    0.3590 C.3    13  ILE13       0.1727
     11  C         33.7500   -0.3670   -1.0870 C.2    13  ILE13       0.2617
     12  O         33.7930   -1.4450   -1.6860 O.2    13  ILE13      -0.2715
     13  CB        32.9410    0.1530    1.1610 C.3    13  ILE13       0.0290
     14  CG1       33.2240    0.3910    2.6190 C.3    13  ILE13       0.0022
     15  CG2       31.9860   -1.0430    1.1570 C.3    13  ILE13       0.0023
     16  CD1       32.0150    0.9090    3.4270 C.3    13  ILE13       0.0001
     17  N         33.3430    0.7200   -1.7020 N.am   14  GLY14      -0.1940
     18  CA        32.9250    0.6070   -3.0810 C.3    14  GLY14       0.2014
     19  C         32.4610    1.9330   -3.6230 C.2    14  GLY14       0.2639
     20  O         32.0780    1.9600   -4.7880 O.2    14  GLY14      -0.2714
     21  N         32.5770    3.0170   -2.8240 N.am   15  LYS15      -0.1963
     22  CA        32.1550    4.3550   -3.2090 C.3    15  LYS15       0.1728
     23  C         32.4820    4.6710   -4.6720 C.2    15  LYS15       0.2617
     24  O         31.5690    4.5750   -5.4900 O.2    15  LYS15      -0.2715
     25  CB        32.8200    5.3970   -2.2850 C.3    15  LYS15       0.0311
     26  CG        32.4960    5.3220   -0.8080 C.3    15  LYS15       0.0038
     27  CD        33.1830    6.4460   -0.0250 C.3    15  LYS15       0.0206
     28  CE        34.6650    6.2430    0.3780 C.3    15  LYS15       0.1093
     29  NZ        35.6640    6.6780   -0.5860 N.3    15  LYS15      -0.1314
     30  N         33.7620    4.8560   -5.0530 N.am   16  SER16      -0.1936
     31  CA        34.1630    5.2550   -6.4110 C.3    16  SER16       0.2055
     32  C         33.6040    4.4150   -7.5650 C.2    16  SER16       0.2644
     33  O         33.0480    4.9570   -8.5150 O.2    16  SER16      -0.2714
     34  CB        35.7080    5.2870   -6.4880 C.3    16  SER16       0.2130
     35  OG        36.2750    6.0790   -5.4470 O.3    16  SER16      -0.2179
     36  N         33.6320    3.0870   -7.4380 N.am   17  THR17      -0.1936
     37  CA        33.1740    2.1680   -8.4700 C.3    17  THR17       0.2028
     38  C         31.6550    2.0970   -8.5560 C.2    17  THR17       0.2642
     39  O         31.0680    1.9440   -9.6290 O.2    17  THR17      -0.2714
     40  CB        33.7690    0.7790   -8.1680 C.3    17  THR17       0.1808
     41  OG1       35.1800    0.9550   -8.0560 O.3    17  THR17      -0.2208
     42  CG2       33.4240   -0.2500   -9.2390 C.3    17  THR17       0.0379
     43  N         31.0290    2.2360   -7.3930 N.am   18  THR18      -0.1950
     44  CA        29.5830    2.1840   -7.2800 C.3    18  THR18       0.1897
     45  C         29.0030    3.4230   -7.9570 C.2    18  THR18       0.2313
     46  O         28.2830    3.3310   -8.9470 O.2    18  THR18      -0.2863
     47  CB        29.2210    2.0960   -5.7650 C.3    18  THR18       0.1794
     48  OG1       29.6940    0.8040   -5.4090 O.3    18  THR18      -0.2208
     49  CG2       27.7520    2.2470   -5.3870 C.3    18  THR18       0.0378
     50  N         38.0940   12.3800   -2.6300 N.3    39  ASP39      -0.1239
     51  CA        39.1470   11.5030   -2.1350 C.3    39  ASP39       0.1674
     52  C         40.4820   12.1860   -2.4070 C.2    39  ASP39       0.2266
     53  O         40.5880   12.8820   -3.4230 O.2    39  ASP39      -0.2867
     54  CB        39.1190   10.1510   -2.8590 C.3    39  ASP39       0.1410
     55  CG        38.0920    9.1460   -2.3360 C.2    39  ASP39       0.3668
     56  OD1       38.2210    8.7060   -1.1900 O.co2  39  ASP39      -0.2456
     57  OD2       37.1740    8.7880   -3.0800 O.co2  39  ASP39      -0.2456
     58  N         40.9690    9.0750   -8.3820 N.3    43  ASP43      -0.1239
     59  CA        40.2640    7.8180   -8.6380 C.3    43  ASP43       0.1674
     60  C         38.7330    7.8360   -8.7380 C.2    43  ASP43       0.2266
     61  O         38.1420    6.9620   -9.3810 O.2    43  ASP43      -0.2867
     62  CB        40.6810    6.8050   -7.5430 C.3    43  ASP43       0.1410
     63  CG        40.0940    7.0640   -6.1530 C.2    43  ASP43       0.3668
     64  OD1       39.3360    6.2280   -5.6720 O.co2  43  ASP43      -0.2456
     65  OD2       40.3690    8.1010   -5.5550 O.co2  43  ASP43      -0.2456
     66  N         27.5430   -3.3090   -0.6480 N.3   185  ASN185     -0.1240
     67  CA        28.4960   -3.8110   -1.6090 C.3   185  ASN185      0.1653
     68  C         29.0990   -5.0480   -0.9560 C.2   185  ASN185      0.2266
     69  O         29.7560   -5.0110    0.0890 O.2   185  ASN185     -0.2867
     70  CB        29.5300   -2.7310   -1.8770 C.3   185  ASN185      0.1155
     71  CG        30.4440   -3.0280   -3.0420 C.2   185  ASN185      0.2627
     72  OD1       31.5550   -2.5080   -3.0790 O.2   185  ASN185     -0.2716
     73  ND2       30.0490   -3.8340   -4.0250 N.am  185  ASN185     -0.0877
     74  N         24.4610   -4.6990   -4.1420 N.3   211  VAL211     -0.1231
     75  CA        25.4410   -4.8030   -5.2130 C.3   211  VAL211      0.1678
     76  C         26.3010   -6.0340   -4.9510 C.2   211  VAL211      0.2434
     77  O         26.8560   -6.1730   -3.8620 O.2   211  VAL211     -0.2733
     78  CB        26.3140   -3.5100   -5.2500 C.3   211  VAL211      0.0265
     79  CG1       27.3480   -3.5820   -6.3630 C.3   211  VAL211      0.0020
     80  CG2       25.4310   -2.3010   -5.5360 C.3   211  VAL211      0.0020
     81  N         26.4120   -6.9610   -5.9100 N.am  212  PRO212     -0.2718
     82  CA        27.1960   -8.1870   -5.8260 C.3   212  PRO212      0.1535
     83  C         28.6840   -7.9490   -6.0230 C.2   212  PRO212      0.2598
     84  O         29.0780   -6.8330   -6.3680 O.2   212  PRO212     -0.2715
     85  CB        26.6200   -9.0640   -6.8920 C.3   212  PRO212      0.0310
     86  CG        25.2800   -8.4600   -7.1600 C.3   212  PRO212      0.0237
     87  CD        25.6160   -6.9920   -7.1150 C.3   212  PRO212      0.0939
     88  N         29.5510   -8.9440   -5.7980 N.am  213  ARG213     -0.1964
     89  CA        30.9470   -8.7260   -6.1150 C.3   213  ARG213      0.1729
     90  C         31.2630   -9.5350   -7.3620 C.2   213  ARG213      0.2616
     91  O         31.6230  -10.7120   -7.3470 O.2   213  ARG213     -0.2715
     92  CB        31.8310   -9.1420   -4.9430 C.3   213  ARG213      0.0348
     93  CG        33.2240   -8.5320   -5.1180 C.3   213  ARG213      0.0492
     94  CD        34.0920   -8.5170   -3.8600 C.3   213  ARG213      0.2205
     95  NE        34.4250   -9.8590   -3.3920 N.pl3 213  ARG213     -0.0865
     96  CZ        34.9780  -10.0940   -2.1920 C.cat 213  ARG213      0.5346
     97  NH1       35.2640   -9.1120   -1.3280 N.pl3 213  ARG213      0.1354
     98  NH2       35.2590  -11.3530   -1.8450 N.pl3 213  ARG213      0.1354
     99  N         31.0550   -8.8650   -8.4890 N.am  214  ASP214     -0.1971
    100  CA        31.3310   -9.4710   -9.7690 C.3   214  ASP214      0.1709
    101  C         32.7120   -9.0080  -10.2140 C.2   214  ASP214      0.2293
    102  O         33.1250   -7.8460  -10.0690 O.2   214  ASP214     -0.2864
    103  CB        30.2500   -9.0420  -10.7620 C.3   214  ASP214      0.1436
    104  CG        30.0670   -9.8380  -12.0640 C.2   214  ASP214      0.3671
    105  OD1       31.0070  -10.4770  -12.5320 O.co2 214  ASP214     -0.2456
    106  OD2       28.9730   -9.8050  -12.6370 O.co2 214  ASP214     -0.2456
    107  N         33.8890   -6.2110  -12.8580 N.3   217  VAL217     -0.1231
    108  CA        34.2830   -4.8840  -12.3860 C.3   217  VAL217      0.1692
    109  C         35.7650   -4.6750  -12.6880 C.2   217  VAL217      0.2591
    110  O         36.1520   -3.6690  -13.2780 O.2   217  VAL217     -0.2718
    111  CB        33.9510   -4.8060  -10.8570 C.3   217  VAL217      0.0266
    112  CG1       34.4880   -3.5620  -10.1890 C.3   217  VAL217      0.0020
    113  CG2       32.4510   -4.7070  -10.7050 C.3   217  VAL217      0.0020
    114  N         36.5600   -5.7150  -12.3930 N.am  218  GLN218     -0.1979
    115  CA        38.0070   -5.7530  -12.6210 C.3   218  GLN218      0.1601
    116  C         38.3620   -5.6890  -14.1150 C.2   218  GLN218      0.2287
    117  O         39.2880   -4.9660  -14.4930 O.2   218  GLN218     -0.2864
    118  CB        38.5770   -7.0460  -11.9900 C.3   218  GLN218      0.0394
    119  CG        38.6290   -7.1410  -10.4630 C.3   218  GLN218      0.0908
    120  CD        37.3200   -6.8890   -9.7180 C.2   218  GLN218      0.2608
    121  OE1       37.0100   -5.7560   -9.3500 O.2   218  GLN218     -0.2717
    122  NE2       36.5010   -7.9020   -9.4570 N.am  218  GLN218     -0.0878
    123  N         37.6130   -2.0740  -15.3090 N.3   221  GLU221     -0.1245
    124  CA        38.5230   -1.1000  -14.7370 C.3   221  GLU221      0.1567
    125  C         39.9670   -1.1800  -15.2450 C.2   221  GLU221      0.2260
    126  O         40.7250   -0.2290  -15.0150 O.2   221  GLU221     -0.2867
    127  CB        38.4700   -1.2410  -13.2130 C.3   221  GLU221      0.0388
    128  CG        37.0890   -0.8310  -12.6840 C.3   221  GLU221      0.1160
    129  CD        36.9200   -0.8040  -11.1680 C.2   221  GLU221      0.3649
    130  OE1       37.3520   -1.7270  -10.4800 O.co2 221  GLU221     -0.2457
    131  OE2       36.3340    0.1510  -10.6700 O.co2 221  GLU221     -0.2457
    132  N         26.0350   -7.7470  -14.1240 N.3   236  GLN236     -0.1245
    133  CA        26.2940   -6.7190  -13.1350 C.3   236  GLN236      0.1566
    134  C         25.8610   -5.3510  -13.6440 C.2   236  GLN236      0.2260
    135  O         25.5330   -4.4770  -12.8440 O.2   236  GLN236     -0.2867
    136  CB        27.7800   -6.7010  -12.8090 C.3   236  GLN236      0.0367
    137  CG        28.2510   -5.7800  -11.6690 C.3   236  GLN236      0.0905
    138  CD        27.8490   -6.1820  -10.2540 C.2   236  GLN236      0.2608
    139  OE1       27.1770   -7.1830   -9.9970 O.2   236  GLN236     -0.2717
    140  NE2       28.2900   -5.3830   -9.2930 N.am  236  GLN236     -0.0878
    141  N         23.6440   -2.6160  -11.6320 N.3   240  TYR240     -0.1241
    142  CA        24.0080   -1.2150  -11.4570 C.3   240  TYR240      0.1605
    143  C         22.9030   -0.2690  -11.9250 C.2   240  TYR240      0.2264
    144  O         22.6460    0.7480  -11.2760 O.2   240  TYR240     -0.2867
    145  CB        25.3380   -0.9320  -12.2130 C.3   240  TYR240      0.0534
    146  CG        26.5820   -1.1520  -11.3430 C.ar  240  TYR240     -0.0201
    147  CD1       26.7780   -0.3430  -10.2140 C.ar  240  TYR240     -0.0009
    148  CD2       27.5210   -2.1550  -11.6310 C.ar  240  TYR240     -0.0009
    149  CE1       27.8900   -0.5300   -9.3820 C.ar  240  TYR240      0.0417
    150  CE2       28.6380   -2.3450  -10.7990 C.ar  240  TYR240      0.0417
    151  CZ        28.8180   -1.5300   -9.6720 C.ar  240  TYR240      0.1957
    152  OH        29.9030   -1.7040   -8.8190 O.3   240  TYR240     -0.2866
@<TRIPOS>BOND
     1   123   124    1
     2   125   126    2
     3   125   124    1
     4   124   127    1
     5   117   116    2
     6   132   133    1
     7   116   115    1
     8   134   133    1
     9   134   135    2
    10   110   109    2
    11   127   128    1
    12   133   136    1
    13   107   108    1
    14   136   137    1
    15   109   114   am
    16   109   108    1
    17   128   129    1
    18   106   104   ar
    19   115   114    1
    20   115   118    1
    21   105   104   ar
    22   108   111    1
    23   145   142    1
    24   145   146    1
    25   104   103    1
    26   118   119    1
    27   143   142    1
    28   143   144    2
    29   137   138    1
    30   141   142    1
    31   148   146   ar
    32   148   150   ar
    33   146   147   ar
    34   129   131   ar
    35   129   130   ar
    36   111   113    1
    37   111   112    1
    38   150   151   ar
    39   103   100    1
    40   119   120    1
    41   138   139    2
    42   138   140   am
    43   101   102    2
    44   101   100    1
    45   147   149   ar
    46   100    99    1
    47   120   122   am
    48   120   121    2
    49   151   149   ar
    50   151   152    1
    51    39    38    2
    52    61    60    2
    53    42    40    1
    54    46    45    2
    55    60    59    1
    56    59    58    1
    57    59    62    1
    58    38    37    1
    59    38    43   am
    60    33    32    2
    61    99    90   am
    62    37    40    1
    63    37    36    1
    64    40    41    1
    65    45    44    1
    66    32    36   am
    67    32    31    1
    68    62    63    1
    69    43    44    1
    70    90    91    2
    71    90    89    1
    72    44    47    1
    73    86    87    1
    74    86    85    1
    75    87    81    1
    76    85    82    1
    77    34    31    1
    78    34    35    1
    79    31    30    1
    80    84    83    2
    81    79    78    1
    82    63    64   ar
    83    63    65   ar
    84    89    88    1
    85    89    92    1
    86    83    82    1
    87    83    88   am
    88    81    82    1
    89    81    76   am
    90    47    48    1
    91    47    49    1
    92    80    78    1
    93    24    23    2
    94    78    75    1
    95    75    76    1
    96    75    74    1
    97    93    92    1
    98    93    94    1
    99    30    23   am
   100    76    77    2
   101    20    19    2
   102    23    22    1
   103    73    71   am
   104    94    95    1
   105    19    18    1
   106    19    21   am
   107    53    52    2
   108    95    96    2
   109    22    21    1
   110    22    25    1
   111    18    17    1
   112    57    55   ar
   113    72    71    2
   114    71    70    1
   115    54    55    1
   116    54    51    1
   117    50    51    1
   118    52    51    1
   119    55    56   ar
   120    25    26    1
   121    96    98    1
   122    96    97    1
   123    70    67    1
   124    17    11   am
   125    12    11    2
   126    67    68    1
   127    67    66    1
   128    11    10    1
   129     8     7    2
   130    68    69    2
   131    26    27    1
   132    29    28    1
   133     7     6    1
   134     7     9   am
   135    27    28    1
   136    10     9    1
   137    10    13    1
   138     6     5    1
   139     5     3   am
   140    15    13    1
   141    13    14    1
   142     3     2    1
   143     3     4    2
   144    14    16    1
   145     2     1    1
