@<TRIPOS>MOLECULE
tmp/1xcwA00.pdb
 207 202 0 0 0
SMALL
GASTEIGER

@<TRIPOS>ATOM
      1  N         19.3860   23.6310   38.4100 N.3    57  TRP57      -0.1227
      2  CA        18.9550   23.8210   39.7800 C.3    57  TRP57       0.1737
      3  C         18.6470   22.4630   40.4040 C.2    57  TRP57       0.2595
      4  O         18.9880   22.2080   41.5600 O.2    57  TRP57      -0.2718
      5  CB        17.7100   24.7140   39.8460 C.3    57  TRP57       0.0564
      6  CG        16.4990   24.1470   39.1580 C.ar   57  TRP57       0.0003
      7  CD1       16.1270   24.3390   37.8590 C.ar   57  TRP57       0.0946
      8  CD2       15.4970   23.3100   39.7440 C.ar   57  TRP57       0.0152
      9  NE1       14.9480   23.6770   37.6000 N.ar   57  TRP57      -0.2442
     10  CE2       14.5400   23.0370   38.7400 C.ar   57  TRP57       0.0810
     11  CE3       15.3140   22.7650   41.0210 C.ar   57  TRP57       0.0012
     12  CZ2       13.4130   22.2400   38.9780 C.ar   57  TRP57       0.0191
     13  CZ3       14.1900   21.9710   41.2560 C.ar   57  TRP57       0.0001
     14  CH2       13.2570   21.7190   40.2400 C.ar   57  TRP57       0.0015
     15  N         18.0400   21.5720   39.6250 N.am   58  TRP58      -0.1976
     16  CA        17.6620   20.2650   40.1510 C.3    58  TRP58       0.1640
     17  C         18.7600   19.2670   40.4920 C.2    58  TRP58       0.2290
     18  O         18.4540   18.1790   40.9730 O.2    58  TRP58      -0.2864
     19  CB        16.6210   19.5920   39.2440 C.3    58  TRP58       0.0576
     20  CG        16.9430   19.5980   37.7910 C.ar   58  TRP58       0.0006
     21  CD1       16.4040   20.4150   36.8360 C.ar   58  TRP58       0.0946
     22  CD2       17.8420   18.7200   37.1060 C.ar   58  TRP58       0.0152
     23  NE1       16.9050   20.0940   35.5990 N.ar   58  TRP58      -0.2442
     24  CE2       17.7920   19.0580   35.7340 C.ar   58  TRP58       0.0810
     25  CE3       18.6850   17.6780   37.5170 C.ar   58  TRP58       0.0012
     26  CZ2       18.5530   18.3900   34.7660 C.ar   58  TRP58       0.0191
     27  CZ3       19.4420   17.0140   36.5520 C.ar   58  TRP58       0.0001
     28  CH2       19.3690   17.3740   35.1960 C.ar   58  TRP58       0.0015
     29  N         18.8800   18.1240   44.1930 N.3    61  TYR61      -0.1241
     30  CA        17.9180   17.1820   44.7440 C.3    61  TYR61       0.1605
     31  C         18.3470   15.7470   44.4440 C.2    61  TYR61       0.2264
     32  O         17.5450   14.8160   44.4570 O.2    61  TYR61      -0.2867
     33  CB        16.5180   17.4920   44.2030 C.3    61  TYR61       0.0534
     34  CG        15.9660   18.7550   44.8210 C.ar   61  TYR61      -0.0201
     35  CD1       15.3750   18.7320   46.0850 C.ar   61  TYR61      -0.0009
     36  CD2       16.1390   19.9890   44.2020 C.ar   61  TYR61      -0.0009
     37  CE1       14.9770   19.9050   46.7200 C.ar   61  TYR61       0.0417
     38  CE2       15.7460   21.1710   44.8300 C.ar   61  TYR61       0.0417
     39  CZ        15.1700   21.1200   46.0890 C.ar   61  TYR61       0.1957
     40  OH        14.8110   22.2870   46.7310 O.3    61  TYR61      -0.2866
     41  N         15.3980    9.8320   48.8470 N.3   100  HIS100     -0.1241
     42  CA        16.2520    9.1710   47.8710 C.3   100  HIS100      0.1621
     43  C         17.6710    9.7140   47.7830 C.2   100  HIS100      0.2264
     44  O         18.0410   10.6600   48.4840 O.2   100  HIS100     -0.2867
     45  CB        15.6120    9.3550   46.5020 C.3   100  HIS100      0.0745
     46  CG        15.2610   10.7840   46.2140 C.ar  100  HIS100      0.0817
     47  ND1       14.0650   11.3420   46.6020 N.ar  100  HIS100     -0.2268
     48  CD2       15.9790   11.7820   45.6470 C.ar  100  HIS100      0.1154
     49  CE1       14.0570   12.6270   46.2840 C.ar  100  HIS100      0.1986
     50  NE2       15.2050   12.9180   45.7050 N.ar  100  HIS100     -0.2212
     51  N          0.3540    7.0430   39.6600 N.3   150  TYR150     -0.1241
     52  CA         0.0460    7.6350   40.9660 C.3   150  TYR150      0.1605
     53  C         -1.2430    7.1300   41.6070 C.2   150  TYR150      0.2264
     54  O         -1.5670    7.5060   42.7330 O.2   150  TYR150     -0.2867
     55  CB        -0.0100    9.1610   40.8580 C.3   150  TYR150      0.0534
     56  CG         1.3540    9.8110   40.8600 C.ar  150  TYR150     -0.0201
     57  CD1        2.1780    9.7650   39.7340 C.ar  150  TYR150     -0.0009
     58  CD2        1.8470   10.4190   42.0170 C.ar  150  TYR150     -0.0009
     59  CE1        3.4670   10.3040   39.7620 C.ar  150  TYR150      0.0417
     60  CE2        3.1270   10.9560   42.0570 C.ar  150  TYR150      0.0417
     61  CZ         3.9330   10.8920   40.9290 C.ar  150  TYR150      0.1957
     62  OH         5.2110   11.3900   40.9920 O.3   150  TYR150     -0.2866
     63  N         11.1880    7.7360   42.0680 N.3   161  LEU161     -0.1231
     64  CA        10.6190    8.9620   41.5120 C.3   161  LEU161      0.1693
     65  C         11.5530    9.4040   40.3840 C.2   161  LEU161      0.2592
     66  O         12.6810    9.8260   40.6290 O.2   161  LEU161     -0.2718
     67  CB        10.5500   10.0560   42.5870 C.3   161  LEU161      0.0284
     68  CG        10.2530   11.4780   42.0970 C.3   161  LEU161      0.0019
     69  CD1        8.8240   11.5660   41.5530 C.3   161  LEU161      0.0001
     70  CD2       10.4360   12.4700   43.2480 C.3   161  LEU161      0.0001
     71  N         11.0780    9.2920   39.1500 N.am  162  THR162     -0.1953
     72  CA        11.8560    9.6630   37.9750 C.3   162  THR162      0.1897
     73  C         13.2810    9.1150   37.9880 C.2   162  THR162      0.2313
     74  O         14.2150    9.8120   37.6030 O.2   162  THR162     -0.2863
     75  CB        11.9210   11.2040   37.7940 C.3   162  THR162      0.1794
     76  OG1       12.6580   11.7840   38.8760 O.3   162  THR162     -0.2208
     77  CG2       10.5210   11.7990   37.7770 C.3   162  THR162      0.0378
     78  N         15.2000    8.2760   40.6210 N.3   164  LEU164     -0.1245
     79  CA        15.9460    8.5130   41.8580 C.3   164  LEU164      0.1561
     80  C         15.9460    7.2880   42.7780 C.2   164  LEU164      0.2260
     81  O         14.8880    6.8320   43.2050 O.2   164  LEU164     -0.2867
     82  CB        15.3510    9.7300   42.5850 C.3   164  LEU164      0.0270
     83  CG        15.7190   11.1520   42.1280 C.3   164  LEU164      0.0019
     84  CD1       16.2900   11.1490   40.7330 C.3   164  LEU164      0.0001
     85  CD2       14.4980   12.0520   42.2150 C.3   164  LEU164      0.0001
     86  N         11.9790   21.1100   55.8390 N.3   194  ARG194     -0.1245
     87  CA        10.9690   20.9430   54.8010 C.3   194  ARG194      0.1563
     88  C         11.2510   19.4980   54.3990 C.2   194  ARG194      0.2260
     89  O         12.3570   19.1930   53.9570 O.2   194  ARG194     -0.2867
     90  CB        11.2480   21.8390   53.5880 C.3   194  ARG194      0.0307
     91  CG        10.4060   21.4780   52.3490 C.3   194  ARG194      0.0489
     92  CD        10.9680   22.0650   51.0540 C.3   194  ARG194      0.2205
     93  NE        10.1170   21.7360   49.9060 N.pl3 194  ARG194     -0.0865
     94  CZ        10.4590   20.9260   48.9090 C.cat 194  ARG194      0.5346
     95  NH1       11.6480   20.3450   48.8960 N.pl3 194  ARG194      0.1354
     96  NH2        9.6030   20.6960   47.9250 N.pl3 194  ARG194      0.1354
     97  N         11.2080   16.9600   51.8860 N.3   196  ASP196     -0.1225
     98  CA        11.0770   16.8500   50.4350 C.3   196  ASP196      0.1805
     99  C         10.4810   15.5230   50.0030 C.2   196  ASP196      0.2597
    100  O         10.7530   14.4840   50.6060 O.2   196  ASP196     -0.2718
    101  CB        12.4540   17.0180   49.7830 C.3   196  ASP196      0.1424
    102  CG        12.4130   16.8670   48.2710 C.2   196  ASP196      0.3668
    103  OD1       11.8480   17.7550   47.6010 O.co2 196  ASP196     -0.2456
    104  OD2       12.9470   15.8610   47.7600 O.co2 196  ASP196     -0.2456
    105  N          9.6630   15.5670   48.9570 N.am  197  ALA197     -0.1979
    106  CA         9.0490   14.3620   48.4160 C.3   197  ALA197      0.1597
    107  C          8.3810   13.5160   49.5030 C.2   197  ALA197      0.2287
    108  O          8.4800   12.2960   49.4800 O.2   197  ALA197     -0.2864
    109  CB        10.1180   13.5340   47.6810 C.3   197  ALA197      0.0319
    110  N          5.3040   12.7330   49.9480 N.3   199  LYS199     -0.1231
    111  CA         4.2800   11.8480   49.3950 C.3   199  LYS199      0.1693
    112  C          4.8980   10.4970   49.0340 C.2   199  LYS199      0.2592
    113  O          4.2170    9.4730   49.0180 O.2   199  LYS199     -0.2718
    114  CB         3.6660   12.4610   48.1340 C.3   199  LYS199      0.0285
    115  CG         2.8050   11.4880   47.3330 C.3   199  LYS199      0.0035
    116  CD         2.4600   12.0260   45.9600 C.3   199  LYS199      0.0206
    117  CE         1.0450   12.5570   45.9030 C.3   199  LYS199      0.1093
    118  NZ         0.7130   13.0880   44.5480 N.3   199  LYS199     -0.1314
    119  N          6.1990   10.5050   48.7590 N.am  200  HIS200     -0.1976
    120  CA         6.9120    9.2920   48.3580 C.3   200  HIS200      0.1656
    121  C          7.4920    8.4790   49.5000 C.2   200  HIS200      0.2291
    122  O          8.2950    7.5750   49.2890 O.2   200  HIS200     -0.2864
    123  CB         8.0000    9.6680   47.3590 C.3   200  HIS200      0.0771
    124  CG         7.4560   10.3790   46.1650 C.ar  200  HIS200      0.0820
    125  ND1        6.7290    9.7330   45.1890 N.ar  200  HIS200     -0.2267
    126  CD2        7.4150   11.6960   45.8570 C.ar  200  HIS200      0.1154
    127  CE1        6.2580   10.6240   44.3330 C.ar  200  HIS200      0.1986
    128  NE2        6.6580   11.8210   44.7180 N.ar  200  HIS200     -0.2212
    129  N          6.3140   18.1910   52.0760 N.3   232  GLU232     -0.1245
    130  CA         5.8890   18.5070   50.7190 C.3   232  GLU232      0.1567
    131  C          5.0460   17.3530   50.2170 C.2   232  GLU232      0.2260
    132  O          5.5590   16.2640   49.9330 O.2   232  GLU232     -0.2867
    133  CB         7.0690   18.6990   49.7550 C.3   232  GLU232      0.0388
    134  CG         6.6120   19.1930   48.3620 C.3   232  GLU232      0.1160
    135  CD         7.3510   18.5300   47.2180 C.2   232  GLU232      0.3649
    136  OE1        8.0670   17.5430   47.4710 O.co2 232  GLU232     -0.2457
    137  OE2        7.1840   18.9540   46.0510 O.co2 232  GLU232     -0.2457
    138  N          1.9680   17.0590   47.4000 N.3   234  ILE234     -0.1245
    139  CA         1.1520   17.7240   46.3980 C.3   234  ILE234      0.1561
    140  C         -0.1550   16.9430   46.3180 C.2   234  ILE234      0.2260
    141  O         -0.1980   15.8270   45.7940 O.2   234  ILE234     -0.2867
    142  CB         1.8780   17.7390   45.0160 C.3   234  ILE234      0.0252
    143  CG1        3.1140   18.6420   45.1150 C.3   234  ILE234      0.0019
    144  CG2        0.9330   18.2150   43.9120 C.3   234  ILE234      0.0019
    145  CD1        3.9530   18.7340   43.8640 C.3   234  ILE234      0.0001
    146  N         -3.8930   17.6580   45.0620 N.3   236  LEU236     -0.1245
    147  CA        -4.8680   18.5070   44.3940 C.3   236  LEU236      0.1561
    148  C         -6.1660   17.7210   44.2630 C.2   236  LEU236      0.2260
    149  O         -7.1210   18.1750   43.6330 O.2   236  LEU236     -0.2867
    150  CB        -4.3490   18.9040   43.0120 C.3   236  LEU236      0.0270
    151  CG        -2.9850   19.5960   42.9750 C.3   236  LEU236      0.0019
    152  CD1       -2.4540   19.6100   41.5530 C.3   236  LEU236      0.0001
    153  CD2       -3.1030   21.0020   43.5280 C.3   236  LEU236      0.0001
    154  N         -6.2140   11.6450   43.7210 N.3   239  GLU239     -0.1245
    155  CA        -5.2890   10.5650   44.0270 C.3   239  GLU239      0.1567
    156  C         -5.6570    9.8650   45.3230 C.2   239  GLU239      0.2260
    157  O         -6.3490   10.4320   46.1680 O.2   239  GLU239     -0.2867
    158  CB        -3.8650   11.1070   44.1110 C.3   239  GLU239      0.0388
    159  CG        -3.2900   11.4540   42.7540 C.3   239  GLU239      0.1160
    160  CD        -1.9090   12.0720   42.8450 C.2   239  GLU239      0.3649
    161  OE1       -1.0890   11.5920   43.6600 O.co2 239  GLU239     -0.2457
    162  OE2       -1.6380   13.0320   42.0920 O.co2 239  GLU239     -0.2457
    163  N          6.2620   28.1680   44.2460 N.3   297  ASN297     -0.1225
    164  CA         7.4360   27.5830   44.8970 C.3   297  ASN297      0.1785
    165  C          8.4830   27.3540   43.8080 C.2   297  ASN297      0.2597
    166  O          8.1900   27.5520   42.6250 O.2   297  ASN297     -0.2718
    167  CB         7.0640   26.2950   45.6650 C.3   297  ASN297      0.1169
    168  CG         6.9790   25.0500   44.7880 C.2   297  ASN297      0.2627
    169  OD1        6.7270   25.1210   43.5900 O.2   297  ASN297     -0.2716
    170  ND2        7.1720   23.8860   45.4130 N.am  297  ASN297     -0.0877
    171  N          9.7010   26.9740   44.1860 N.am  298  HIS298     -0.1961
    172  CA        10.7590   26.7850   43.1870 C.3   298  HIS298      0.1787
    173  C         10.3880   25.8380   42.0500 C.2   298  HIS298      0.2620
    174  O         10.9250   25.9500   40.9470 O.2   298  HIS298     -0.2715
    175  CB        12.0690   26.3130   43.8390 C.3   298  HIS298      0.0785
    176  CG        11.9990   24.9460   44.4420 C.ar  298  HIS298      0.0821
    177  ND1       11.3200   24.6830   45.6130 N.ar  298  HIS298     -0.2267
    178  CD2       12.5340   23.7680   44.0450 C.ar  298  HIS298      0.1154
    179  CE1       11.4420   23.4030   45.9100 C.ar  298  HIS298      0.1986
    180  NE2       12.1740   22.8240   44.9730 N.ar  298  HIS298     -0.2212
    181  N          9.4700   24.9120   42.3150 N.am  299  ASP299     -0.1971
    182  CA         9.0370   23.9520   41.2990 C.3   299  ASP299      0.1709
    183  C          8.0480   24.5120   40.2870 C.2   299  ASP299      0.2293
    184  O          8.3420   24.5770   39.0940 O.2   299  ASP299     -0.2864
    185  CB         8.3810   22.7360   41.9510 C.3   299  ASP299      0.1436
    186  CG         9.3590   21.6210   42.2500 C.2   299  ASP299      0.3671
    187  OD1       10.5520   21.7170   41.8760 O.co2 299  ASP299     -0.2456
    188  OD2        8.9150   20.6260   42.8620 O.co2 299  ASP299     -0.2456
    189  N          7.5060   23.1640   36.8310 N.3   304  HIS304     -0.1226
    190  CA         8.0350   21.8380   37.1330 C.3   304  HIS304      0.1752
    191  C          7.2610   21.1220   38.2380 C.2   304  HIS304      0.2597
    192  O          7.4960   19.9440   38.5020 O.2   304  HIS304     -0.2718
    193  CB         9.5070   21.9410   37.5400 C.3   304  HIS304      0.0759
    194  CG        10.2850   20.6770   37.3330 C.ar  304  HIS304      0.0818
    195  ND1       10.6310   20.2150   36.0810 N.ar  304  HIS304     -0.2268
    196  CD2       10.7980   19.7870   38.2160 C.ar  304  HIS304      0.1154
    197  CE1       11.3250   19.0970   36.2020 C.ar  304  HIS304      0.1986
    198  NE2       11.4400   18.8150   37.4880 N.ar  304  HIS304     -0.2212
    199  N          6.3390   21.8200   38.8870 N.am  305  GLY305     -0.1942
    200  CA         5.5930   21.1810   39.9550 C.3   305  GLY305      0.2014
    201  C          4.1610   20.8670   39.5800 C.2   305  GLY305      0.2638
    202  O          3.8930   20.2030   38.5790 O.2   305  GLY305     -0.2714
    203  N          3.2350   21.3380   40.4020 N.am  306  ALA306     -0.1977
    204  CA         1.8220   21.1300   40.1430 C.3   306  ALA306      0.1597
    205  C          1.1400   22.4820   40.2880 C.2   306  ALA306      0.2287
    206  O          1.5570   23.3100   41.1000 O.2   306  ALA306     -0.2864
    207  CB         1.2480   20.1310   41.1280 C.3   306  ALA306      0.0319
@<TRIPOS>BOND
     1    26    28   ar
     2    26    24   ar
     3    28    27   ar
     4    23    24   ar
     5    23    21   ar
     6    24    22   ar
     7   195   197   ar
     8   195   194   ar
     9   197   198   ar
    10    27    25   ar
    11   189   190    1
    12    21    20   ar
    13    22    25   ar
    14    22    20   ar
    15   190   193    1
    16   190   191    1
    17   194   193    1
    18   194   196   ar
    19   198   196   ar
    20     9     7   ar
    21     9    10   ar
    22    74    73    2
    23    77    75    1
    24    20    19    1
    25    75    72    1
    26    75    76    1
    27     7     6   ar
    28    72    73    1
    29    72    71    1
    30   191   192    2
    31   191   199   am
    32     1     2    1
    33   202   201    2
    34    10    12   ar
    35    10     8   ar
    36   199   200    1
    37    12    14   ar
    38   184   183    2
    39    71    65   am
    40     6     8   ar
    41     6     5    1
    42    19    16    1
    43   201   200    1
    44   201   203   am
    45    15    16    1
    46    15     3   am
    47    51    52    1
    48    57    59   ar
    49    57    56   ar
    50     8    11   ar
    51    59    61   ar
    52     2     5    1
    53     2     3    1
    54   204   205    1
    55   204   203    1
    56   204   207    1
    57    16    17    1
    58    14    13   ar
    59   183   182    1
    60   205   206    2
    61    65    66    2
    62    65    64    1
    63     3     4    2
    64    17    18    2
    65    78    79    1
    66    84    83    1
    67    55    56    1
    68    55    52    1
    69    56    58   ar
    70    61    62    1
    71    61    60   ar
    72   174   173    2
    73    52    53    1
    74    11    13   ar
    75   182   185    1
    76   182   181    1
    77    64    63    1
    78    64    67    1
    79    69    68    1
    80   152   151    1
    81    53    54    2
    82    79    82    1
    83    79    80    1
    84   187   186   ar
    85   185   186    1
    86    58    60   ar
    87   173   181   am
    88   173   172    1
    89   162   160   ar
    90    68    67    1
    91    68    70    1
    92    83    85    1
    93    83    82    1
    94   186   188   ar
    95   166   165    2
    96   159   160    1
    97   159   158    1
    98    80    81    2
    99   160   161   ar
   100   151   150    1
   101   151   153    1
   102   150   147    1
   103   172   175    1
   104   172   171    1
   105   169   168    2
   106   149   148    2
   107   154   155    1
   108   165   171   am
   109   165   164    1
   110   175   176    1
   111   145   143    1
   112   144   142    1
   113   155   158    1
   114   155   156    1
   115   178   176   ar
   116   178   180   ar
   117    29    30    1
   118    36    34   ar
   119    36    38   ar
   120    33    30    1
   121    33    34    1
   122   163   164    1
   123   148   147    1
   124   127   128   ar
   125   127   125   ar
   126   147   146    1
   127   176   177   ar
   128    31    32    2
   129    31    30    1
   130   118   117    1
   131   128   126   ar
   132   168   170   am
   133   168   167    1
   134    34    35   ar
   135    38    39   ar
   136   164   167    1
   137   180   179   ar
   138   142   143    1
   139   142   139    1
   140   125   124   ar
   141   156   157    2
   142   177   179   ar
   143    48    50   ar
   144    48    46   ar
   145    50    49   ar
   146   141   140    2
   147   126   124   ar
   148   117   116    1
   149   116   115    1
   150   137   135   ar
   151    35    37   ar
   152    39    37   ar
   153    39    40    1
   154   124   123    1
   155    46    45    1
   156    46    47   ar
   157    49    47   ar
   158   140   139    1
   159   139   138    1
   160    45    42    1
   161   135   136   ar
   162   135   134    1
   163   115   114    1
   164   123   120    1
   165   103   102   ar
   166   109   106    1
   167   104   102   ar
   168    43    42    1
   169    43    44    2
   170    42    41    1
   171    96    94    1
   172   114   111    1
   173   102   101    1
   174   120   119    1
   175   120   121    1
   176   134   133    1
   177   106   105    1
   178   106   107    1
   179   119   112   am
   180    95    94    1
   181    94    93    2
   182   105    99   am
   183   113   112    2
   184   112   111    1
   185   122   121    2
   186   111   110    1
   187   108   107    2
   188   133   130    1
   189   101    98    1
   190    93    92    1
   191   132   131    2
   192    99    98    1
   193    99   100    2
   194   131   130    1
   195    98    97    1
   196   130   129    1
   197    92    91    1
   198    91    90    1
   199    90    87    1
   200    89    88    2
   201    88    87    1
   202    87    86    1
