@<TRIPOS>MOLECULE
tmp/1xcxA00.pdb
 215 211 0 0 0
SMALL
GASTEIGER

@<TRIPOS>ATOM
      1  N         19.5480   23.8010   38.4450 N.3    57  TRP57      -0.1227
      2  CA        19.1360   23.9300   39.8340 C.3    57  TRP57       0.1737
      3  C         18.8020   22.5540   40.4360 C.2    57  TRP57       0.2595
      4  O         19.1110   22.2910   41.5980 O.2    57  TRP57      -0.2718
      5  CB        17.9140   24.8500   39.9590 C.3    57  TRP57       0.0564
      6  CG        16.7130   24.3650   39.2050 C.ar   57  TRP57       0.0003
      7  CD1       16.4020   24.6260   37.9000 C.ar   57  TRP57       0.0946
      8  CD2       15.6870   23.4820   39.6920 C.ar   57  TRP57       0.0152
      9  NE1       15.2500   23.9610   37.5440 N.ar   57  TRP57      -0.2442
     10  CE2       14.7920   23.2520   38.6250 C.ar   57  TRP57       0.0810
     11  CE3       15.4390   22.8620   40.9290 C.ar   57  TRP57       0.0012
     12  CZ2       13.6640   22.4290   38.7550 C.ar   57  TRP57       0.0191
     13  CZ3       14.3170   22.0440   41.0580 C.ar   57  TRP57       0.0001
     14  CH2       13.4450   21.8370   39.9760 C.ar   57  TRP57       0.0015
     15  N         18.1950   21.6700   39.6460 N.am   58  TRP58      -0.1976
     16  CA        17.8070   20.3630   40.1730 C.3    58  TRP58       0.1640
     17  C         18.9000   19.3500   40.4970 C.2    58  TRP58       0.2290
     18  O         18.5940   18.2580   40.9630 O.2    58  TRP58      -0.2864
     19  CB        16.7460   19.6980   39.2810 C.3    58  TRP58       0.0576
     20  CG        17.0170   19.6930   37.8020 C.ar   58  TRP58       0.0006
     21  CD1       16.4380   20.5000   36.8580 C.ar   58  TRP58       0.0946
     22  CD2       17.8760   18.7960   37.0880 C.ar   58  TRP58       0.0152
     23  NE1       16.8780   20.1520   35.6020 N.ar   58  TRP58      -0.2442
     24  CE2       17.7620   19.1110   35.7140 C.ar   58  TRP58       0.0810
     25  CE3       18.7330   17.7550   37.4760 C.ar   58  TRP58       0.0012
     26  CZ2       18.4730   18.4190   34.7240 C.ar   58  TRP58       0.0191
     27  CZ3       19.4410   17.0670   36.4910 C.ar   58  TRP58       0.0001
     28  CH2       19.3060   17.4040   35.1310 C.ar   58  TRP58       0.0015
     29  N         18.9710   18.1560   44.1430 N.3    61  TYR61      -0.1241
     30  CA        18.0090   17.2080   44.6820 C.3    61  TYR61       0.1605
     31  C         18.4350   15.7770   44.3850 C.2    61  TYR61       0.2264
     32  O         17.6260   14.8490   44.3920 O.2    61  TYR61      -0.2867
     33  CB        16.6150   17.5210   44.1370 C.3    61  TYR61       0.0534
     34  CG        16.0850   18.7910   44.7550 C.ar   61  TYR61      -0.0201
     35  CD1       15.4970   18.7770   46.0220 C.ar   61  TYR61      -0.0009
     36  CD2       16.2840   20.0270   44.1370 C.ar   61  TYR61      -0.0009
     37  CE1       15.1270   19.9620   46.6590 C.ar   61  TYR61       0.0417
     38  CE2       15.9220   21.2190   44.7710 C.ar   61  TYR61       0.0417
     39  CZ        15.3460   21.1760   46.0300 C.ar   61  TYR61       0.1957
     40  OH        15.0100   22.3460   46.6660 O.3    61  TYR61      -0.2866
     41  N         15.4850    9.8970   48.7190 N.3   100  HIS100     -0.1241
     42  CA        16.3350    9.2360   47.7390 C.3   100  HIS100      0.1621
     43  C         17.7600    9.7640   47.6710 C.2   100  HIS100      0.2264
     44  O         18.1230   10.7270   48.3520 O.2   100  HIS100     -0.2867
     45  CB        15.7090    9.4630   46.3690 C.3   100  HIS100      0.0745
     46  CG        15.3960   10.9070   46.1030 C.ar  100  HIS100      0.0817
     47  ND1       14.1980   11.4880   46.4660 N.ar  100  HIS100     -0.2268
     48  CD2       16.1600   11.9110   45.6050 C.ar  100  HIS100      0.1154
     49  CE1       14.2380   12.7820   46.2050 C.ar  100  HIS100      0.1986
     50  NE2       15.4170   13.0660   45.6830 N.ar  100  HIS100     -0.2212
     51  N          0.4170    7.1380   39.6820 N.3   150  TYR150     -0.1241
     52  CA         0.1330    7.7320   40.9840 C.3   150  TYR150      0.1605
     53  C         -1.1720    7.2650   41.6190 C.2   150  TYR150      0.2264
     54  O         -1.5260    7.7140   42.7100 O.2   150  TYR150     -0.2867
     55  CB         0.1160    9.2550   40.8860 C.3   150  TYR150      0.0534
     56  CG         1.4900    9.8710   40.9100 C.ar  150  TYR150     -0.0201
     57  CD1        2.3430    9.7730   39.8120 C.ar  150  TYR150     -0.0009
     58  CD2        1.9530   10.5320   42.0500 C.ar  150  TYR150     -0.0009
     59  CE1        3.6320   10.3200   39.8490 C.ar  150  TYR150      0.0417
     60  CE2        3.2330   11.0820   42.0990 C.ar  150  TYR150      0.0417
     61  CZ         4.0650   10.9730   40.9970 C.ar  150  TYR150      0.1957
     62  OH         5.3220   11.5240   41.0510 O.3   150  TYR150     -0.2866
     63  N         11.2570    7.8670   42.1220 N.3   161  LEU161     -0.1231
     64  CA        10.6620    9.0810   41.5720 C.3   161  LEU161      0.1693
     65  C         11.5510    9.4680   40.3950 C.2   161  LEU161      0.2592
     66  O         12.6850    9.9040   40.5860 O.2   161  LEU161     -0.2718
     67  CB        10.6710   10.2000   42.6170 C.3   161  LEU161      0.0284
     68  CG        10.2740   11.6110   42.1550 C.3   161  LEU161      0.0019
     69  CD1        8.8480   11.6040   41.5930 C.3   161  LEU161      0.0001
     70  CD2       10.3940   12.5800   43.3400 C.3   161  LEU161      0.0001
     71  N         11.0350    9.2960   39.1840 N.am  162  THR162     -0.1953
     72  CA        11.7770    9.5960   37.9660 C.3   162  THR162      0.1897
     73  C         13.2270    9.0970   38.0240 C.2   162  THR162      0.2313
     74  O         14.1600    9.8460   37.7420 O.2   162  THR162     -0.2863
     75  CB        11.7730   11.1180   37.6530 C.3   162  THR162      0.1794
     76  OG1       12.5470   11.8160   38.6290 O.3   162  THR162     -0.2208
     77  CG2       10.3560   11.6610   37.6840 C.3   162  THR162      0.0378
     78  N         15.2460    8.3840   40.5770 N.3   164  LEU164     -0.1245
     79  CA        16.0250    8.6410   41.7940 C.3   164  LEU164      0.1561
     80  C         16.0550    7.4040   42.6920 C.2   164  LEU164      0.2260
     81  O         15.0020    6.8950   43.0720 O.2   164  LEU164     -0.2867
     82  CB        15.4110    9.8110   42.5690 C.3   164  LEU164      0.0270
     83  CG        15.8090   11.2740   42.3240 C.3   164  LEU164      0.0019
     84  CD1       16.8040   11.4060   41.1960 C.3   164  LEU164      0.0001
     85  CD2       14.5620   12.0880   42.0600 C.3   164  LEU164      0.0001
     86  N         12.0370   21.2420   55.7700 N.3   194  ARG194     -0.1245
     87  CA        11.0500   21.0710   54.7180 C.3   194  ARG194      0.1563
     88  C         11.3860   19.6350   54.3200 C.2   194  ARG194      0.2260
     89  O         12.5040   19.3680   53.8700 O.2   194  ARG194     -0.2867
     90  CB        11.3210   21.9760   53.5110 C.3   194  ARG194      0.0307
     91  CG        10.5500   21.5360   52.2520 C.3   194  ARG194      0.0489
     92  CD        11.0360   22.2340   50.9840 C.3   194  ARG194      0.2205
     93  NE        10.2290   21.8880   49.8120 N.pl3 194  ARG194     -0.0865
     94  CZ        10.5550   20.9790   48.8970 C.cat 194  ARG194      0.5346
     95  NH1       11.6890   20.2940   48.9880 N.pl3 194  ARG194      0.1354
     96  NH2        9.7330   20.7500   47.8850 N.pl3 194  ARG194      0.1354
     97  N         11.3980   17.1460   51.8370 N.3   196  ASP196     -0.1225
     98  CA        11.2510   17.0140   50.3970 C.3   196  ASP196      0.1805
     99  C         10.6300   15.6770   49.9940 C.2   196  ASP196      0.2597
    100  O         10.9490   14.6400   50.5720 O.2   196  ASP196     -0.2718
    101  CB        12.6230   17.1480   49.7330 C.3   196  ASP196      0.1424
    102  CG        12.5600   16.9510   48.2300 C.2   196  ASP196      0.3668
    103  OD1       11.9530   17.8030   47.5500 O.co2 196  ASP196     -0.2456
    104  OD2       13.1070   15.9410   47.7330 O.co2 196  ASP196     -0.2456
    105  N          9.7460   15.7120   49.0000 N.am  197  ALA197     -0.1979
    106  CA         9.1060   14.5010   48.4890 C.3   197  ALA197      0.1597
    107  C          8.4570   13.6340   49.5670 C.2   197  ALA197      0.2287
    108  O          8.5970   12.4100   49.5460 O.2   197  ALA197     -0.2864
    109  CB        10.1400   13.6660   47.7080 C.3   197  ALA197      0.0319
    110  N          5.3890   12.8440   49.9580 N.3   199  LYS199     -0.1231
    111  CA         4.3630   11.9680   49.3980 C.3   199  LYS199      0.1693
    112  C          4.9580   10.6000   49.0700 C.2   199  LYS199      0.2592
    113  O          4.2660    9.5800   49.1050 O.2   199  LYS199     -0.2718
    114  CB         3.7690   12.5760   48.1160 C.3   199  LYS199      0.0285
    115  CG         2.8070   11.6300   47.3980 C.3   199  LYS199      0.0035
    116  CD         2.4160   12.1030   46.0000 C.3   199  LYS199      0.0206
    117  CE         1.3200   13.1470   46.0240 C.3   199  LYS199      0.1093
    118  NZ         0.8940   13.5230   44.6400 N.3   199  LYS199     -0.1314
    119  N          6.2570   10.5910   48.7770 N.am  200  HIS200     -0.1976
    120  CA         6.9650    9.3760   48.3930 C.3   200  HIS200      0.1656
    121  C          7.5400    8.5620   49.5390 C.2   200  HIS200      0.2291
    122  O          8.3000    7.6150   49.3240 O.2   200  HIS200     -0.2864
    123  CB         8.0490    9.7480   47.3880 C.3   200  HIS200      0.0771
    124  CG         7.5030   10.4380   46.1830 C.ar  200  HIS200      0.0820
    125  ND1        6.8690    9.7570   45.1660 N.ar  200  HIS200     -0.2267
    126  CD2        7.3880   11.7530   45.8850 C.ar  200  HIS200      0.1154
    127  CE1        6.3850   10.6240   44.2930 C.ar  200  HIS200      0.1986
    128  NE2        6.6860   11.8420   44.7070 N.ar  200  HIS200     -0.2212
    129  N          6.3950   18.3470   52.0730 N.3   232  GLU232     -0.1245
    130  CA         5.9320   18.6610   50.7270 C.3   232  GLU232      0.1567
    131  C          5.1180   17.4840   50.2090 C.2   232  GLU232      0.2260
    132  O          5.6600   16.4180   49.8820 O.2   232  GLU232     -0.2867
    133  CB         7.0790   18.9070   49.7420 C.3   232  GLU232      0.0388
    134  CG         6.5580   19.2610   48.3470 C.3   232  GLU232      0.1160
    135  CD         7.2910   18.5470   47.2240 C.2   232  GLU232      0.3649
    136  OE1        7.8850   17.4840   47.4780 O.co2 232  GLU232     -0.2457
    137  OE2        7.2600   19.0390   46.0780 O.co2 232  GLU232     -0.2457
    138  N          2.0660   17.1060   47.4220 N.3   234  ILE234     -0.1245
    139  CA         1.2330   17.7480   46.4120 C.3   234  ILE234      0.1561
    140  C         -0.0830   16.9670   46.3760 C.2   234  ILE234      0.2260
    141  O         -0.1310   15.8060   45.9450 O.2   234  ILE234     -0.2867
    142  CB         1.9180   17.7140   45.0160 C.3   234  ILE234      0.0252
    143  CG1        3.2510   18.4680   45.0830 C.3   234  ILE234      0.0019
    144  CG2        0.9950   18.3190   43.9530 C.3   234  ILE234      0.0019
    145  CD1        4.0450   18.4580   43.7870 C.3   234  ILE234      0.0001
    146  N         -3.8020   17.7590   45.0570 N.3   236  LEU236     -0.1231
    147  CA        -4.7920   18.6020   44.3980 C.3   236  LEU236      0.1693
    148  C         -6.0770   17.8100   44.2400 C.2   236  LEU236      0.2593
    149  O         -6.9700   18.2030   43.4990 O.2   236  LEU236     -0.2718
    150  CB        -4.2900   19.0390   43.0220 C.3   236  LEU236      0.0284
    151  CG        -2.9680   19.8090   42.9740 C.3   236  LEU236      0.0019
    152  CD1       -2.5980   20.0850   41.5210 C.3   236  LEU236      0.0001
    153  CD2       -3.0900   21.1080   43.7590 C.3   236  LEU236      0.0001
    154  N         -6.1590   16.6930   44.9520 N.am  237  GLY237     -0.1942
    155  CA        -7.3310   15.8460   44.8640 C.3   237  GLY237      0.2014
    156  C         -7.1700   14.8820   43.7040 C.2   237  GLY237      0.2639
    157  O         -6.2520   15.0280   42.8940 O.2   237  GLY237     -0.2714
    158  N         -8.0460   13.8880   43.6230 N.am  238  GLY238     -0.1939
    159  CA        -7.9630   12.9340   42.5320 C.3   238  GLY238      0.2014
    160  C         -6.9680   11.8010   42.7140 C.2   238  GLY238      0.2638
    161  O         -6.9290   10.8760   41.8990 O.2   238  GLY238     -0.2714
    162  N         -6.1560   11.8590   43.7630 N.am  239  GLU239     -0.1977
    163  CA        -5.1900   10.7990   44.0080 C.3   239  GLU239      0.1602
    164  C         -5.4990   10.0700   45.2980 C.2   239  GLU239      0.2287
    165  O         -6.0870   10.6370   46.2130 O.2   239  GLU239     -0.2864
    166  CB        -3.7770   11.3670   44.0650 C.3   239  GLU239      0.0415
    167  CG        -3.0590   11.3250   42.7330 C.3   239  GLU239      0.1163
    168  CD        -1.6990   11.9960   42.7800 C.2   239  GLU239      0.3649
    169  OE1       -0.9820   11.8370   43.7900 O.co2 239  GLU239     -0.2457
    170  OE2       -1.3450   12.6740   41.7950 O.co2 239  GLU239     -0.2457
    171  N          6.3620   28.3070   44.2070 N.3   297  ASN297     -0.1225
    172  CA         7.5260   27.7070   44.8650 C.3   297  ASN297      0.1785
    173  C          8.5990   27.5000   43.7980 C.2   297  ASN297      0.2597
    174  O          8.3320   27.7190   42.6060 O.2   297  ASN297     -0.2718
    175  CB         7.1470   26.4110   45.6180 C.3   297  ASN297      0.1169
    176  CG         7.0850   25.1670   44.7220 C.2   297  ASN297      0.2627
    177  OD1        6.8150   25.2420   43.5250 O.2   297  ASN297     -0.2716
    178  ND2        7.3200   24.0030   45.3260 N.am  297  ASN297     -0.0877
    179  N          9.8040   27.1000   44.2020 N.am  298  HIS298     -0.1961
    180  CA        10.8890   26.9660   43.2380 C.3   298  HIS298      0.1787
    181  C         10.4450   26.0020   42.1130 C.2   298  HIS298      0.2620
    182  O         10.9690   26.0850   41.0150 O.2   298  HIS298     -0.2715
    183  CB        12.1860   26.4320   43.9110 C.3   298  HIS298      0.0785
    184  CG        12.0700   25.0190   44.3990 C.ar  298  HIS298      0.0821
    185  ND1       11.4200   24.6840   45.5680 N.ar  298  HIS298     -0.2267
    186  CD2       12.5280   23.8560   43.8770 C.ar  298  HIS298      0.1154
    187  CE1       11.4880   23.3780   45.7470 C.ar  298  HIS298      0.1986
    188  NE2       12.1550   22.8510   44.7360 N.ar  298  HIS298     -0.2212
    189  N          9.4400   25.1500   42.3180 N.am  299  ASP299     -0.1971
    190  CA         9.1100   24.1900   41.2700 C.3   299  ASP299      0.1709
    191  C          8.1480   24.8830   40.3330 C.2   299  ASP299      0.2293
    192  O          8.5560   25.4540   39.3570 O.2   299  ASP299     -0.2864
    193  CB         8.4440   22.9770   41.8900 C.3   299  ASP299      0.1436
    194  CG         9.4470   21.8990   42.2800 C.2   299  ASP299      0.3671
    195  OD1       10.6540   21.9860   41.9400 O.co2 299  ASP299     -0.2456
    196  OD2        9.0230   20.9080   42.8970 O.co2 299  ASP299     -0.2456
    197  N          7.3280   23.2010   36.9090 N.3   304  HIS304     -0.1226
    198  CA         7.8750   21.8930   37.2560 C.3   304  HIS304      0.1752
    199  C          7.1520   20.9770   38.2400 C.2   304  HIS304      0.2597
    200  O          7.3880   19.7660   38.2360 O.2   304  HIS304     -0.2718
    201  CB         9.3110   22.0680   37.7400 C.3   304  HIS304      0.0759
    202  CG        10.3370   21.6080   36.7570 C.ar  304  HIS304      0.0818
    203  ND1       10.6930   20.2830   36.6200 N.ar  304  HIS304     -0.2268
    204  CD2       11.0780   22.2930   35.8550 C.ar  304  HIS304      0.1154
    205  CE1       11.6120   20.1730   35.6770 C.ar  304  HIS304      0.1986
    206  NE2       11.8620   21.3780   35.1970 N.ar  304  HIS304     -0.2212
    207  N          6.2880   21.5090   39.0900 N.am  305  GLY305     -0.1942
    208  CA         5.6360   20.6110   40.0320 C.3   305  GLY305      0.2014
    209  C          4.1670   20.4030   39.7490 C.2   305  GLY305      0.2638
    210  O          3.7830   19.5680   38.9280 O.2   305  GLY305     -0.2714
    211  N          3.3500   21.1690   40.4620 N.am  306  ALA306     -0.1977
    212  CA         1.9040   21.1450   40.3140 C.3   306  ALA306      0.1597
    213  C          1.4520   22.5980   40.4360 C.2   306  ALA306      0.2287
    214  O          2.1010   23.4050   41.1030 O.2   306  ALA306     -0.2864
    215  CB         1.2700   20.2930   41.4010 C.3   306  ALA306      0.0319
@<TRIPOS>BOND
     1    26    28   ar
     2    26    24   ar
     3    28    27   ar
     4   206   205   ar
     5   206   204   ar
     6    23    24   ar
     7    23    21   ar
     8   205   203   ar
     9    24    22   ar
    10   204   202   ar
    11    27    25   ar
    12   203   202   ar
    13   202   201    1
    14    21    20   ar
    15   197   198    1
    16    22    25   ar
    17    22    20   ar
    18   198   201    1
    19   198   199    1
    20     9     7   ar
    21     9    10   ar
    22    75    77    1
    23    75    72    1
    24    75    76    1
    25    74    73    2
    26    20    19    1
    27     7     6   ar
    28    72    73    1
    29    72    71    1
    30   200   199    2
    31   199   207   am
    32     1     2    1
    33    10    12   ar
    34    10     8   ar
    35    12    14   ar
    36   210   209    2
    37   207   208    1
    38    71    65   am
    39     6     8   ar
    40     6     5    1
    41    19    16    1
    42   192   191    2
    43    15    16    1
    44    15     3   am
    45    51    52    1
    46     8    11   ar
    47   209   208    1
    48   209   211   am
    49    57    59   ar
    50    57    56   ar
    51     2     5    1
    52     2     3    1
    53    59    61   ar
    54    14    13   ar
    55    16    17    1
    56   212   213    1
    57   212   211    1
    58   212   215    1
    59   191   190    1
    60    65    66    2
    61    65    64    1
    62     3     4    2
    63   213   214    2
    64    17    18    2
    65    78    79    1
    66    55    56    1
    67    55    52    1
    68    56    58   ar
    69    11    13   ar
    70    52    53    1
    71    61    62    1
    72    61    60   ar
    73   182   181    2
    74    84    83    1
    75   190   193    1
    76   190   189    1
    77   152   151    1
    78    64    63    1
    79    64    67    1
    80    69    68    1
    81    53    54    2
    82    79    82    1
    83    79    80    1
    84   170   168   ar
    85   193   194    1
    86   161   160    2
    87   195   194   ar
    88    58    60   ar
    89    85    83    1
    90   181   189   am
    91   181   180    1
    92    68    67    1
    93    68    70    1
    94   194   196   ar
    95    83    82    1
    96   159   160    1
    97   159   158    1
    98   174   173    2
    99    80    81    2
   100   160   162   am
   101   167   168    1
   102   167   166    1
   103   168   169   ar
   104   157   156    2
   105   151   150    1
   106   151   153    1
   107   150   147    1
   108   180   183    1
   109   180   179    1
   110   149   148    2
   111   177   176    2
   112   158   156   am
   113   156   155    1
   114   162   163    1
   115   145   143    1
   116   173   179   am
   117   173   172    1
   118   186   184   ar
   119   186   188   ar
   120   183   184    1
   121   144   142    1
   122   163   166    1
   123   163   164    1
   124    33    30    1
   125    33    34    1
   126    36    34   ar
   127    36    38   ar
   128    29    30    1
   129   171   172    1
   130   148   147    1
   131   148   154   am
   132   127   128   ar
   133   127   125   ar
   134    31    32    2
   135    31    30    1
   136   147   146    1
   137   184   185   ar
   138   118   117    1
   139   128   126   ar
   140   176   178   am
   141   176   175    1
   142   188   187   ar
   143    34    35   ar
   144    38    39   ar
   145   155   154    1
   146   172   175    1
   147   142   143    1
   148   142   139    1
   149   125   124   ar
   150   164   165    2
   151   185   187   ar
   152    48    50   ar
   153    48    46   ar
   154    50    49   ar
   155   126   124   ar
   156   141   140    2
   157   116   117    1
   158   116   115    1
   159    35    37   ar
   160    39    37   ar
   161    39    40    1
   162   137   135   ar
   163    46    45    1
   164    46    47   ar
   165   124   123    1
   166    49    47   ar
   167    45    42    1
   168   140   139    1
   169   139   138    1
   170   135   136   ar
   171   135   134    1
   172   123   120    1
   173   115   114    1
   174   103   102   ar
   175    43    42    1
   176    43    44    2
   177   109   106    1
   178   104   102   ar
   179    42    41    1
   180    96    94    1
   181   114   111    1
   182   102   101    1
   183   134   133    1
   184   120   119    1
   185   120   121    1
   186   106   105    1
   187   106   107    1
   188   119   112   am
   189    94    95    1
   190    94    93    2
   191   105    99   am
   192   112   113    2
   193   112   111    1
   194   122   121    2
   195   111   110    1
   196   108   107    2
   197   101    98    1
   198   133   130    1
   199    93    92    1
   200   132   131    2
   201    99    98    1
   202    99   100    2
   203   131   130    1
   204    98    97    1
   205   130   129    1
   206    92    91    1
   207    91    90    1
   208    90    87    1
   209    89    88    2
   210    88    87    1
   211    87    86    1
