@<TRIPOS>MOLECULE
tmp/1xd3A00.pdb
 107 101 0 0 0
SMALL
GASTEIGER

@<TRIPOS>ATOM
      1  N         28.9330   54.0150   51.3550 N.3     7  PRO7       -0.2102
      2  CA        27.6770   53.3890   50.9290 C.3     7  PRO7        0.1504
      3  C         27.3990   53.6630   49.4380 C.2     7  PRO7        0.2575
      4  O         27.5770   54.7800   48.9550 O.2     7  PRO7       -0.2718
      5  CB        26.6510   54.0390   51.8480 C.3     7  PRO7        0.0282
      6  CG        27.2110   55.4200   52.0250 C.3     7  PRO7        0.0208
      7  CD        28.6760   55.1470   52.2660 C.3     7  PRO7        0.0893
      8  N         26.9790   52.6300   48.7090 N.am    8  LEU8       -0.1980
      9  CA        26.6830   52.7660   47.2810 C.3     8  LEU8        0.1596
     10  C         25.2590   53.2420   47.0300 C.2     8  LEU8        0.2287
     11  O         24.3450   52.9500   47.8000 O.2     8  LEU8       -0.2864
     12  CB        26.8560   51.4280   46.5550 C.3     8  LEU8        0.0297
     13  CG        28.1820   50.6760   46.6140 C.3     8  LEU8        0.0022
     14  CD1       28.0540   49.3930   45.7990 C.3     8  LEU8        0.0001
     15  CD2       29.3130   51.5430   46.0880 C.3     8  LEU8        0.0001
     16  N         17.0130   47.8590   48.8760 N.3    54  LEU54      -0.1245
     17  CA        17.5970   48.7950   49.8210 C.3    54  LEU54       0.1561
     18  C         16.4170   49.1110   50.7520 C.2    54  LEU54       0.2260
     19  O         15.3170   49.4240   50.2870 O.2    54  LEU54      -0.2867
     20  CB        18.0940   50.0660   49.1300 C.3    54  LEU54       0.0270
     21  CG        18.5000   51.1640   50.1200 C.3    54  LEU54       0.0019
     22  CD1       19.6570   51.9380   49.5390 C.3    54  LEU54       0.0001
     23  CD2       17.3070   52.0880   50.4030 C.3    54  LEU54       0.0001
     24  N         17.3480   50.2090   58.1200 N.3    57  ILE57      -0.1245
     25  CA        17.6310   49.3570   59.2680 C.3    57  ILE57       0.1561
     26  C         17.3580   50.1780   60.5290 C.2    57  ILE57       0.2260
     27  O         18.2540   50.5730   61.2710 O.2    57  ILE57      -0.2867
     28  CB        19.0730   48.7760   59.2350 C.3    57  ILE57       0.0252
     29  CG1       20.1070   49.8480   58.8890 C.3    57  ILE57       0.0019
     30  CG2       19.1320   47.6350   58.2240 C.3    57  ILE57       0.0019
     31  CD1       21.5470   49.3060   58.8400 C.3    57  ILE57       0.0001
     32  N         29.1210   39.8620   56.3340 N.3    88  GLN88      -0.1245
     33  CA        29.5350   41.2470   56.2150 C.3    88  GLN88       0.1566
     34  C         30.4050   41.5820   57.4190 C.2    88  GLN88       0.2260
     35  O         29.9550   41.5040   58.5690 O.2    88  GLN88      -0.2867
     36  CB        28.3280   42.1820   56.1920 C.3    88  GLN88       0.0367
     37  CG        28.7480   43.6490   56.0640 C.3    88  GLN88       0.0905
     38  CD        27.5770   44.5810   55.8690 C.2    88  GLN88       0.2608
     39  OE1       26.7240   44.3510   55.0110 O.2    88  GLN88      -0.2717
     40  NE2       27.5290   45.6500   56.6610 N.am   88  GLN88      -0.0878
     41  N         32.2580   47.6150   57.2880 N.3    91  SER91      -0.1202
     42  CA        31.2150   48.6210   57.4070 C.3    91  SER91       0.2020
     43  C         30.9460   49.2210   56.0360 C.2    91  SER91       0.2618
     44  O         31.8760   49.5410   55.2960 O.2    91  SER91      -0.2717
     45  CB        31.6460   49.7250   58.3790 C.3    91  SER91       0.2103
     46  OG        30.6460   50.7270   58.4870 O.3    91  SER91      -0.2182
     47  N         29.6680   49.3590   55.7050 N.am   92  ASN92      -0.1974
     48  CA        29.2430   49.9260   54.4240 C.3    92  ASN92       0.1688
     49  C         29.5420   49.1400   53.1730 C.2    92  ASN92       0.2292
     50  O         29.4140   49.6670   52.0650 O.2    92  ASN92      -0.2864
     51  CB        29.8040   51.3390   54.2430 C.3    92  ASN92       0.1181
     52  CG        29.1590   52.3240   55.1730 C.2    92  ASN92       0.2629
     53  OD1       28.0770   52.0660   55.7060 O.2    92  ASN92      -0.2716
     54  ND2       29.8070   53.4680   55.3730 N.am   92  ASN92      -0.0877
     55  N         27.8450   46.6030   52.2990 N.3    94  CYS94      -0.1235
     56  CA        26.6300   45.8920   51.9180 C.3    94  CYS94       0.1677
     57  C         26.2910   45.9220   50.4310 C.2    94  CYS94       0.2270
     58  O         25.7270   44.9670   49.9170 O.2    94  CYS94      -0.2867
     59  CB        25.3950   46.3550   52.7100 C.3    94  CYS94       0.0956
     60  SG        24.9210   48.0980   52.5080 S.3    94  CYS94      -0.0801
     61  N         24.8470   55.5700   58.5910 N.3   165  VAL165     -0.1245
     62  CA        24.1110   54.9920   57.4750 C.3   165  VAL165      0.1561
     63  C         23.0510   54.0810   58.0820 C.2   165  VAL165      0.2260
     64  O         23.3720   53.1710   58.8520 O.2   165  VAL165     -0.2867
     65  CB        25.0210   54.1690   56.5370 C.3   165  VAL165      0.0252
     66  CG1       24.1900   53.5690   55.4160 C.3   165  VAL165      0.0019
     67  CG2       26.0700   55.0560   55.9050 C.3   165  VAL165      0.0019
     68  N         20.5150   52.6430   56.0750 N.3   167  LEU167     -0.1231
     69  CA        19.9050   51.9640   54.9330 C.3   167  LEU167      0.1693
     70  C         20.8350   50.8030   54.5820 C.2   167  LEU167      0.2592
     71  O         22.0460   50.9150   54.6780 O.2   167  LEU167     -0.2718
     72  CB        19.7490   52.9230   53.7550 C.3   167  LEU167      0.0284
     73  CG        18.8670   54.1420   54.0560 C.3   167  LEU167      0.0019
     74  CD1       18.7810   54.9890   52.7970 C.3   167  LEU167      0.0001
     75  CD2       17.4700   53.7200   54.5300 C.3   167  LEU167      0.0001
     76  N         20.2540   49.6930   54.1640 N.am  168  HIS168     -0.1962
     77  CA        21.0300   48.4930   53.9060 C.3   168  HIS168      0.1787
     78  C         20.5290   47.8200   52.6430 C.2   168  HIS168      0.2620
     79  O         19.3880   48.0160   52.2500 O.2   168  HIS168     -0.2715
     80  CB        20.8390   47.6000   55.1410 C.3   168  HIS168      0.0785
     81  CG        21.5350   46.2760   55.0880 C.ar  168  HIS168      0.0821
     82  ND1       22.8160   46.1110   54.6070 N.ar  168  HIS168     -0.2267
     83  CD2       21.1590   45.0690   55.5690 C.ar  168  HIS168      0.1154
     84  CE1       23.2010   44.8600   54.7990 C.ar  168  HIS168      0.1986
     85  NE2       22.2130   44.2060   55.3820 N.ar  168  HIS168     -0.2212
     86  N         21.4080   47.0460   52.0140 N.am  169  PHE169     -0.1974
     87  CA        21.0810   46.2810   50.8180 C.3   169  PHE169      0.1639
     88  C         21.0730   44.7980   51.1320 C.2   169  PHE169      0.2290
     89  O         21.9310   44.3100   51.8740 O.2   169  PHE169     -0.2864
     90  CB        22.1610   46.3990   49.7280 C.3   169  PHE169      0.0560
     91  CG        22.1640   47.6790   48.9590 C.ar  169  PHE169     -0.0200
     92  CD1       21.2060   47.9350   47.9790 C.ar  169  PHE169     -0.0042
     93  CD2       23.1790   48.6060   49.1600 C.ar  169  PHE169     -0.0042
     94  CE1       21.2700   49.1020   47.2080 C.ar  169  PHE169     -0.0003
     95  CE2       23.2480   49.7600   48.4050 C.ar  169  PHE169     -0.0003
     96  CZ        22.2880   50.0130   47.4200 C.ar  169  PHE169     -0.0000
     97  N         24.6920   40.6020   57.3140 N.3   185  ARG185     -0.1245
     98  CA        24.5940   40.9680   58.7330 C.3   185  ARG185      0.1563
     99  C         23.9320   39.8530   59.5300 C.2   185  ARG185      0.2260
    100  O         23.9900   39.8410   60.7580 O.2   185  ARG185     -0.2867
    101  CB        23.7530   42.2310   58.9110 C.3   185  ARG185      0.0307
    102  CG        24.3080   43.4680   58.2280 C.3   185  ARG185      0.0489
    103  CD        23.3730   44.6580   58.4550 C.3   185  ARG185      0.2205
    104  NE        23.5230   45.2470   59.7890 N.pl3 185  ARG185     -0.0865
    105  CZ        22.5050   45.5280   60.5980 C.cat 185  ARG185      0.5346
    106  NH1       21.2640   45.2640   60.2240 N.pl3 185  ARG185      0.1354
    107  NH2       22.7300   46.1110   61.7700 N.pl3 185  ARG185      0.1354
@<TRIPOS>BOND
     1    14    13    1
     2    15    13    1
     3    12    13    1
     4    12     9    1
     5    10     9    1
     6    10    11    2
     7    94    96   ar
     8    94    92   ar
     9     9     8    1
    10    96    95   ar
    11    92    91   ar
    12    95    93   ar
    13     8     3   am
    14    16    17    1
    15     4     3    2
    16    91    93   ar
    17    91    90    1
    18    20    17    1
    19    20    21    1
    20     3     2    1
    21    22    21    1
    22    90    87    1
    23    17    18    1
    24    58    57    2
    25    21    23    1
    26    19    18    2
    27    57    56    1
    28    87    88    1
    29    87    86    1
    30     2     1    1
    31     2     5    1
    32    88    89    2
    33     1     7    1
    34     5     6    1
    35    56    55    1
    36    56    59    1
    37    86    78   am
    38     6     7    1
    39    50    49    2
    40    79    78    2
    41    60    59    1
    42    78    77    1
    43    74    73    1
    44    49    48    1
    45    72    73    1
    46    72    69    1
    47    77    76    1
    48    77    80    1
    49    73    75    1
    50    76    70   am
    51    51    48    1
    52    51    52    1
    53    48    47    1
    54    70    71    2
    55    70    69    1
    56    82    84   ar
    57    82    81   ar
    58    84    85   ar
    59    69    68    1
    60    39    38    2
    61    81    80    1
    62    81    83   ar
    63    52    54   am
    64    52    53    2
    65    44    43    2
    66    85    83   ar
    67    66    65    1
    68    47    43   am
    69    38    37    1
    70    38    40   am
    71    67    65    1
    72    43    42    1
    73    37    36    1
    74    36    33    1
    75    33    32    1
    76    33    34    1
    77    65    62    1
    78    41    42    1
    79    97    98    1
    80    42    45    1
    81    34    35    2
    82    62    63    1
    83    62    61    1
    84    63    64    2
    85    24    25    1
    86    30    28    1
    87   102   103    1
    88   102   101    1
    89    45    46    1
    90   103   104    1
    91    98   101    1
    92    98    99    1
    93    31    29    1
    94    29    28    1
    95    28    25    1
    96    25    26    1
    97    99   100    2
    98   104   105    2
    99   106   105    1
   100    26    27    2
   101   105   107    1
