@<TRIPOS>MOLECULE
tmp/1xddB00.pdb
 160 149 0 0 0
SMALL
GASTEIGER

@<TRIPOS>ATOM
      1  N         15.2040  107.5790   35.5100 N.3     5  LEU5       -0.1245
      2  CA        14.5780  106.4600   36.2080 C.3     5  LEU5        0.1561
      3  C         13.3740  106.9410   37.0000 C.2     5  LEU5        0.2260
      4  O         13.4470  107.9180   37.7180 O.2     5  LEU5       -0.2867
      5  CB        15.5620  105.7650   37.1280 C.3     5  LEU5        0.0270
      6  CG        15.0510  104.4790   37.8070 C.3     5  LEU5        0.0019
      7  CD1       16.2300  103.5660   38.0730 C.3     5  LEU5        0.0001
      8  CD2       14.4030  104.8040   39.1130 C.3     5  LEU5        0.0001
      9  N         13.6480  102.0440   50.7150 N.3    26  PHE26      -0.1241
     10  CA        14.3130  101.4360   49.5860 C.3    26  PHE26       0.1605
     11  C         14.5860  102.4730   48.4680 C.2    26  PHE26       0.2264
     12  O         15.6880  102.5230   47.9280 O.2    26  PHE26      -0.2867
     13  CB        13.4670  100.3320   49.0310 C.3    26  PHE26       0.0534
     14  CG        14.0330   99.7010   47.7750 C.ar   26  PHE26      -0.0203
     15  CD1       15.1330   98.8670   47.8430 C.ar   26  PHE26      -0.0042
     16  CD2       13.4400   99.9180   46.5360 C.ar   26  PHE26      -0.0042
     17  CE1       15.6670   98.2910   46.6830 C.ar   26  PHE26      -0.0003
     18  CE2       13.9690   99.3330   45.3740 C.ar   26  PHE26      -0.0003
     19  CZ        15.0880   98.5080   45.4700 C.ar   26  PHE26      -0.0000
     20  N         18.4190  103.7430   47.1100 N.3    30  VAL30      -0.1245
     21  CA        18.8400  103.7040   45.7260 C.3    30  VAL30       0.1561
     22  C         19.2510  105.0830   45.2550 C.2    30  VAL30       0.2260
     23  O         20.2860  105.2280   44.5990 O.2    30  VAL30      -0.2867
     24  CB        17.7450  103.1580   44.8480 C.3    30  VAL30       0.0252
     25  CG1       18.0940  103.2930   43.3760 C.3    30  VAL30       0.0019
     26  CG2       17.5070  101.6980   45.1850 C.3    30  VAL30       0.0019
     27  N         23.1540  106.4110   44.0370 N.3    34  LEU34      -0.1245
     28  CA        23.3840  106.9280   42.6850 C.3    34  LEU34       0.1561
     29  C         23.4200  108.4510   42.5850 C.2    34  LEU34       0.2260
     30  O         23.3910  108.9750   41.4980 O.2    34  LEU34      -0.2867
     31  CB        22.3480  106.3410   41.7200 C.3    34  LEU34       0.0270
     32  CG        22.4240  104.8260   41.6040 C.3    34  LEU34       0.0019
     33  CD1       21.2580  104.2450   40.8680 C.3    34  LEU34       0.0001
     34  CD2       23.7000  104.4360   40.8810 C.3    34  LEU34       0.0001
     35  N         22.3290  109.8350   36.7200 N.3    39  TYR39      -0.1241
     36  CA        20.9360  109.4150   36.9340 C.3    39  TYR39       0.1605
     37  C         20.0960  110.6050   37.3140 C.2    39  TYR39       0.2264
     38  O         20.5260  111.4570   38.1050 O.2    39  TYR39      -0.2867
     39  CB        20.8170  108.3520   38.0250 C.3    39  TYR39       0.0534
     40  CG        20.9760  106.9450   37.5040 C.ar   39  TYR39      -0.0201
     41  CD1       22.1680  106.5230   36.9140 C.ar   39  TYR39      -0.0009
     42  CD2       19.9270  106.0460   37.5700 C.ar   39  TYR39      -0.0009
     43  CE1       22.3150  105.1990   36.4370 C.ar   39  TYR39       0.0417
     44  CE2       20.0480  104.7510   37.1040 C.ar   39  TYR39       0.0417
     45  CZ        21.2490  104.3220   36.5370 C.ar   39  TYR39       0.1957
     46  OH        21.3380  103.0380   36.0560 O.3    39  TYR39      -0.2866
     47  N         14.0740  104.0730   32.3190 N.3   106  VAL106     -0.1245
     48  CA        13.8830  102.9330   33.1970 C.3   106  VAL106      0.1561
     49  C         12.7010  103.1540   34.1290 C.2   106  VAL106      0.2260
     50  O         12.5870  104.2120   34.7510 O.2   106  VAL106     -0.2867
     51  CB        15.1500  102.6590   34.0240 C.3   106  VAL106      0.0252
     52  CG1       14.9860  101.3970   34.9150 C.3   106  VAL106      0.0019
     53  CG2       16.3100  102.4620   33.0970 C.3   106  VAL106      0.0019
     54  N         10.9550  101.3610   37.4640 N.3   108  ILE108     -0.1245
     55  CA        10.9100  100.3820   38.5310 C.3   108  ILE108      0.1561
     56  C          9.5460  100.3860   39.2260 C.2   108  ILE108      0.2260
     57  O          9.1750  101.3430   39.9070 O.2   108  ILE108     -0.2867
     58  CB        12.0570  100.6060   39.5000 C.3   108  ILE108      0.0252
     59  CG1       13.3930  100.5520   38.7340 C.3   108  ILE108      0.0019
     60  CG2       12.0530   99.5270   40.5800 C.3   108  ILE108      0.0019
     61  CD1       14.5380  100.6420   39.5730 C.3   108  ILE108      0.0001
     62  N         12.7130  100.2780   29.6730 N.3   128  ILE128     -0.1245
     63  CA        13.1620   99.1330   30.4140 C.3   128  ILE128      0.1561
     64  C         12.3550   99.0480   31.7160 C.2   128  ILE128      0.2260
     65  O         12.3840   99.9810   32.4950 O.2   128  ILE128     -0.2867
     66  CB        14.6690   99.2900   30.7410 C.3   128  ILE128      0.0252
     67  CG1       15.4910   99.4820   29.4570 C.3   128  ILE128      0.0019
     68  CG2       15.1750   98.0820   31.4970 C.3   128  ILE128      0.0019
     69  CD1       17.0130   99.5280   29.7370 C.3   128  ILE128      0.0001
     70  N         11.3360   96.9680   35.2000 N.3   130  TYR130     -0.1241
     71  CA        11.4990   96.0020   36.2750 C.3   130  TYR130      0.1605
     72  C         10.2650   96.0220   37.1220 C.2   130  TYR130      0.2264
     73  O          9.7540   97.1130   37.4120 O.2   130  TYR130     -0.2867
     74  CB        12.6670   96.4150   37.1810 C.3   130  TYR130      0.0534
     75  CG        14.0120   96.0590   36.6540 C.ar  130  TYR130     -0.0201
     76  CD1       14.7210   96.9370   35.8550 C.ar  130  TYR130     -0.0009
     77  CD2       14.5860   94.8130   36.9450 C.ar  130  TYR130     -0.0009
     78  CE1       15.9600   96.5850   35.3490 C.ar  130  TYR130      0.0417
     79  CE2       15.8230   94.4590   36.4450 C.ar  130  TYR130      0.0417
     80  CZ        16.5000   95.3490   35.6550 C.ar  130  TYR130      0.1957
     81  OH        17.7360   95.0110   35.1760 O.3   130  TYR130     -0.2866
     82  N          8.9670   94.6180   40.9710 N.3   132  ILE132     -0.1245
     83  CA         9.2930   94.0120   42.2510 C.3   132  ILE132      0.1561
     84  C          7.9560   93.6870   42.9430 C.2   132  ILE132      0.2260
     85  O          7.2070   94.5980   43.3440 O.2   132  ILE132     -0.2867
     86  CB        10.1870   94.9330   43.0940 C.3   132  ILE132      0.0252
     87  CG1       11.4710   95.2790   42.3500 C.3   132  ILE132      0.0019
     88  CG2       10.5590   94.2780   44.4110 C.3   132  ILE132      0.0019
     89  CD1       12.2770   96.3810   43.0230 C.3   132  ILE132      0.0001
     90  N         15.2670   87.9990   34.3870 N.3   157  GLU157     -0.1231
     91  CA        16.0540   89.1890   34.8010 C.3   157  GLU157      0.1699
     92  C         15.1720   90.2860   35.4830 C.2   157  GLU157      0.2592
     93  O         15.5620   90.8950   36.5250 O.2   157  GLU157     -0.2718
     94  CB        16.8160   89.7650   33.5940 C.3   157  GLU157      0.0402
     95  CG        17.3940   91.1720   33.7640 C.3   157  GLU157      0.1161
     96  CD        18.3520   91.3270   34.9410 C.2   157  GLU157      0.3649
     97  OE1       18.8310   90.3010   35.4790 O.co2 157  GLU157     -0.2457
     98  OE2       18.6360   92.4910   35.3300 O.co2 157  GLU157     -0.2457
     99  N         13.9900   90.5060   34.9170 N.am  158  PHE158     -0.1976
    100  CA        13.2470   91.7700   35.1530 C.3   158  PHE158      0.1639
    101  C         12.1160   91.6830   36.1820 C.2   158  PHE158      0.2290
    102  O         11.6200   92.7180   36.6420 O.2   158  PHE158     -0.2864
    103  CB        12.7280   92.3220   33.8280 C.3   158  PHE158      0.0560
    104  CG        13.8160   92.8410   32.9400 C.ar  158  PHE158     -0.0200
    105  CD1       14.2150   92.1290   31.8010 C.ar  158  PHE158     -0.0042
    106  CD2       14.4750   94.0130   33.2470 C.ar  158  PHE158     -0.0042
    107  CE1       15.2480   92.6100   30.9850 C.ar  158  PHE158     -0.0003
    108  CE2       15.5060   94.4930   32.4460 C.ar  158  PHE158     -0.0003
    109  CZ        15.9020   93.7840   31.3120 C.ar  158  PHE158     -0.0000
    110  N         11.3820   90.4600   39.9510 N.3   160  LYS160     -0.1245
    111  CA        11.9180   90.0560   41.2440 C.3   160  LYS160      0.1561
    112  C         10.7430   89.7850   42.1840 C.2   160  LYS160      0.2260
    113  O          9.9080   90.6510   42.3720 O.2   160  LYS160     -0.2867
    114  CB        12.7810   91.1530   41.8930 C.3   160  LYS160      0.0271
    115  CG        13.7790   91.8470   41.0070 C.3   160  LYS160      0.0035
    116  CD        14.8240   90.9090   40.5090 C.3   160  LYS160      0.0206
    117  CE        15.8830   91.6210   39.6990 C.3   160  LYS160      0.1093
    118  NZ        16.6790   90.5640   39.0420 N.3   160  LYS160     -0.1314
    119  N         17.6430   93.0520   48.6110 N.3   171  LEU171     -0.1245
    120  CA        17.7170   93.4410   47.2090 C.3   171  LEU171      0.1561
    121  C         18.6610   94.6420   47.0500 C.2   171  LEU171      0.2260
    122  O         19.3710   94.7240   46.0900 O.2   171  LEU171     -0.2867
    123  CB        16.3200   93.7910   46.6800 C.3   171  LEU171      0.0270
    124  CG        16.1360   94.0330   45.2110 C.3   171  LEU171      0.0019
    125  CD1       16.4490   92.7890   44.4180 C.3   171  LEU171      0.0001
    126  CD2       14.6890   94.4100   45.0010 C.3   171  LEU171      0.0001
    127  N         22.2160   93.3560   47.2250 N.3   174  GLU174     -0.1231
    128  CA        22.5610   92.7660   45.9280 C.3   174  GLU174      0.1699
    129  C         22.9260   93.8320   44.9000 C.2   174  GLU174      0.2592
    130  O         23.9020   93.6950   44.1320 O.2   174  GLU174     -0.2718
    131  CB        21.4480   91.8580   45.3950 C.3   174  GLU174      0.0402
    132  CG        21.7290   91.4190   43.9660 C.3   174  GLU174      0.1161
    133  CD        20.6770   90.5220   43.3370 C.2   174  GLU174      0.3649
    134  OE1       20.9520   89.9970   42.2260 O.co2 174  GLU174     -0.2457
    135  OE2       19.5810   90.3380   43.9170 O.co2 174  GLU174     -0.2457
    136  N         22.1850   94.9310   44.9210 N.am  175  LEU175     -0.1980
    137  CA        22.5000   96.0420   44.0500 C.3   175  LEU175      0.1596
    138  C         23.9170   96.5630   44.3030 C.2   175  LEU175      0.2287
    139  O         24.6290   96.9260   43.3770 O.2   175  LEU175     -0.2864
    140  CB        21.4920   97.1540   44.2830 C.3   175  LEU175      0.0297
    141  CG        21.5030   98.3590   43.3840 C.3   175  LEU175      0.0022
    142  CD1       20.0490   98.8020   43.2120 C.3   175  LEU175      0.0001
    143  CD2       22.3520   99.4490   43.9720 C.3   175  LEU175      0.0001
    144  N         26.7540   94.7270   42.5350 N.3   178  LYS178     -0.1231
    145  CA        26.7910   94.7210   41.0810 C.3   178  LYS178      0.1693
    146  C         26.8770   96.0700   40.4210 C.2   178  LYS178      0.2591
    147  O         27.1140   96.1490   39.2170 O.2   178  LYS178     -0.2718
    148  CB        25.5790   93.9930   40.5270 C.3   178  LYS178      0.0285
    149  CG        25.5470   92.5150   40.8340 C.3   178  LYS178      0.0035
    150  CD        24.2950   91.8730   40.3620 C.3   178  LYS178      0.0206
    151  CE        24.3190   90.4170   40.6740 C.3   178  LYS178      0.1093
    152  NZ        22.9880   89.7880   40.5310 N.3   178  LYS178     -0.1314
    153  N         26.6910   97.1380   41.1710 N.am  179  ILE179     -0.1980
    154  CA        26.8230   98.4570   40.6030 C.3   179  ILE179      0.1595
    155  C         27.8350   99.2190   41.3860 C.2   179  ILE179      0.2287
    156  O         27.6520   99.4430   42.5720 O.2   179  ILE179     -0.2864
    157  CB        25.4710   99.2400   40.6070 C.3   179  ILE179      0.0276
    158  CG1       24.3950   98.4600   39.8390 C.3   179  ILE179      0.0022
    159  CG2       25.6660  100.6320   40.0010 C.3   179  ILE179      0.0022
    160  CD1       23.0610   99.1920   39.6990 C.3   179  ILE179      0.0001
@<TRIPOS>BOND
     1    67    69    1
     2    67    66    1
     3    62    63    1
     4    63    66    1
     5    63    64    1
     6    66    68    1
     7   107   109   ar
     8   107   105   ar
     9   109   108   ar
    10    64    65    2
    11   105   104   ar
    12    47    48    1
    13   108   106   ar
    14   104   106   ar
    15   104   103    1
    16    53    51    1
    17    48    51    1
    18    48    49    1
    19    94    95    1
    20    94    91    1
    21    95    96    1
    22   103   100    1
    23    51    52    1
    24    49    50    2
    25    90    91    1
    26    91    92    1
    27    99   100    1
    28    99    92   am
    29    96    98   ar
    30    96    97   ar
    31   100   101    1
    32    81    80    1
    33    70    71    1
    34    78    80   ar
    35    78    76   ar
    36    92    93    2
    37     1     2    1
    38    80    79   ar
    39    76    75   ar
    40    46    45    1
    41   101   102    2
    42     2     3    1
    43     2     5    1
    44    71    72    1
    45    71    74    1
    46    43    45   ar
    47    43    41   ar
    48    79    77   ar
    49    45    44   ar
    50    75    77   ar
    51    75    74    1
    52    35    36    1
    53    41    40   ar
    54    36    37    1
    55    36    39    1
    56     3     4    2
    57    44    42   ar
    58    72    73    2
    59     5     6    1
    60    37    38    2
    61    54    55    1
    62    40    42   ar
    63    40    39    1
    64     6     7    1
    65     6     8    1
    66    55    56    1
    67    55    58    1
    68    59    58    1
    69    59    61    1
    70   118   117    1
    71   147   146    2
    72    56    57    2
    73    58    60    1
    74   160   158    1
    75   117   116    1
    76   158   157    1
    77   110   111    1
    78   159   157    1
    79   150   151    1
    80   150   149    1
    81   146   145    1
    82   146   153   am
    83   116   115    1
    84   148   149    1
    85   148   145    1
    86   152   151    1
    87   154   157    1
    88   154   153    1
    89   154   155    1
    90    33    32    1
    91    34    32    1
    92    82    83    1
    93   115   114    1
    94   145   144    1
    95   111   114    1
    96   111   112    1
    97   155   156    2
    98    30    29    2
    99    32    31    1
   100    31    28    1
   101   112   113    2
   102   134   133   ar
   103    83    84    1
   104    83    86    1
   105    87    89    1
   106    87    86    1
   107    29    28    1
   108    28    27    1
   109    84    85    2
   110    86    88    1
   111   142   141    1
   112   133   135   ar
   113   133   132    1
   114    25    24    1
   115   139   138    2
   116   141   143    1
   117   141   140    1
   118   132   131    1
   119   137   140    1
   120   137   138    1
   121   137   136    1
   122   130   129    2
   123   125   124    1
   124    23    22    2
   125    24    26    1
   126    24    21    1
   127   129   136   am
   128   129   128    1
   129   126   124    1
   130   124   123    1
   131    22    21    1
   132    18    19   ar
   133    18    16   ar
   134   131   128    1
   135    19    17   ar
   136    21    20    1
   137   128   127    1
   138   122   121    2
   139    16    14   ar
   140   123   120    1
   141    17    15   ar
   142   121   120    1
   143   120   119    1
   144    14    15   ar
   145    14    13    1
   146    12    11    2
   147    11    10    1
   148    13    10    1
   149    10     9    1
