@<TRIPOS>MOLECULE
tmp/1xdgB00.pdb
 178 165 0 0 0
SMALL
GASTEIGER

@<TRIPOS>ATOM
      1  N         64.0410   34.1900   30.2390 N.3     3  VAL3       -0.1245
      2  CA        63.7570   35.3060   31.1210 C.3     3  VAL3        0.1561
      3  C         64.6110   35.1380   32.3900 C.2     3  VAL3        0.2260
      4  O         64.5940   34.0740   33.0270 O.2     3  VAL3       -0.2867
      5  CB        62.2710   35.4050   31.4720 C.3     3  VAL3        0.0252
      6  CG1       62.0160   36.5040   32.4640 C.3     3  VAL3        0.0019
      7  CG2       61.4310   35.6580   30.2050 C.3     3  VAL3        0.0019
      8  N         64.8120   36.7020   35.8780 N.3     5  LEU5       -0.1245
      9  CA        63.9610   37.5100   36.7580 C.3     5  LEU5        0.1561
     10  C         64.5360   37.6740   38.1680 C.2     5  LEU5        0.2260
     11  O         64.8840   36.6940   38.8420 O.2     5  LEU5       -0.2867
     12  CB        62.5600   36.8910   36.8440 C.3     5  LEU5        0.0270
     13  CG        61.4510   37.6550   37.5630 C.3     5  LEU5        0.0019
     14  CD1       60.1060   37.2180   37.0030 C.3     5  LEU5        0.0001
     15  CD2       61.4800   37.4710   39.1040 C.3     5  LEU5        0.0001
     16  N         63.6670   39.1990   41.9780 N.3     7  PHE7       -0.1241
     17  CA        62.7620   39.7360   42.9810 C.3     7  PHE7        0.1605
     18  C         63.5900   40.6740   43.8870 C.2     7  PHE7        0.2264
     19  O         64.5840   40.2720   44.5130 O.2     7  PHE7       -0.2867
     20  CB        62.1680   38.6470   43.8600 C.3     7  PHE7        0.0534
     21  CG        61.1440   37.7660   43.1590 C.ar    7  PHE7       -0.0203
     22  CD1       61.4190   36.4600   42.8910 C.ar    7  PHE7       -0.0042
     23  CD2       59.8970   38.2610   42.8280 C.ar    7  PHE7       -0.0042
     24  CE1       60.4440   35.6270   42.2490 C.ar    7  PHE7       -0.0003
     25  CE2       58.9500   37.4680   42.1880 C.ar    7  PHE7       -0.0003
     26  CZ        59.2390   36.1450   41.9100 C.ar    7  PHE7       -0.0000
     27  N         54.7570   34.6780   48.5010 N.3    26  PHE26      -0.1241
     28  CA        54.4010   35.0250   47.1300 C.3    26  PHE26       0.1605
     29  C         55.5050   34.6580   46.1540 C.2    26  PHE26       0.2264
     30  O         55.2570   34.0450   45.1180 O.2    26  PHE26      -0.2867
     31  CB        54.0120   36.5120   47.0420 C.3    26  PHE26       0.0534
     32  CG        53.8960   37.0430   45.6350 C.ar   26  PHE26      -0.0203
     33  CD1       52.7560   36.8240   44.9020 C.ar   26  PHE26      -0.0042
     34  CD2       54.9150   37.7990   45.0690 C.ar   26  PHE26      -0.0042
     35  CE1       52.6290   37.3210   43.6220 C.ar   26  PHE26      -0.0003
     36  CE2       54.8040   38.2910   43.7780 C.ar   26  PHE26      -0.0003
     37  CZ        53.6390   38.0630   43.0590 C.ar   26  PHE26      -0.0000
     38  N         55.2940   31.7870   43.0890 N.3    30  VAL30      -0.1245
     39  CA        55.6330   32.1200   41.7060 C.3    30  VAL30       0.1561
     40  C         56.7250   31.1930   41.2030 C.2    30  VAL30       0.2260
     41  O         56.5750   30.5750   40.1520 O.2    30  VAL30      -0.2867
     42  CB        56.0430   33.5970   41.5110 C.3    30  VAL30       0.0252
     43  CG1       56.5570   33.8320   40.0750 C.3    30  VAL30       0.0019
     44  CG2       54.8740   34.5260   41.8340 C.3    30  VAL30       0.0019
     45  N         56.5460   28.2440   38.2590 N.3    34  LEU34      -0.1245
     46  CA        57.3980   28.2890   37.0650 C.3    34  LEU34       0.1561
     47  C         58.6990   27.4720   37.1610 C.2    34  LEU34       0.2260
     48  O         59.6690   27.7670   36.4990 O.2    34  LEU34      -0.2867
     49  CB        57.7050   29.7440   36.7270 C.3    34  LEU34       0.0270
     50  CG        56.4770   30.6190   36.4610 C.3    34  LEU34       0.0019
     51  CD1       56.8730   32.0780   36.3180 C.3    34  LEU34       0.0001
     52  CD2       55.8180   30.1360   35.2020 C.3    34  LEU34       0.0001
     53  N         62.4680   30.2160   32.7360 N.3    39  TYR39      -0.1241
     54  CA        62.6850   31.3100   33.6670 C.3    39  TYR39       0.1605
     55  C         63.8030   30.8840   34.6570 C.2    39  TYR39       0.2264
     56  O         63.8670   29.7460   35.0510 O.2    39  TYR39      -0.2867
     57  CB        61.4080   31.6930   34.4310 C.3    39  TYR39       0.0534
     58  CG        60.3030   32.2530   33.5860 C.ar   39  TYR39      -0.0201
     59  CD1       59.4920   31.4130   32.8340 C.ar   39  TYR39      -0.0009
     60  CD2       60.0500   33.5980   33.5380 C.ar   39  TYR39      -0.0009
     61  CE1       58.4840   31.9050   32.0570 C.ar   39  TYR39       0.0417
     62  CE2       59.0310   34.1030   32.7830 C.ar   39  TYR39       0.0417
     63  CZ        58.2560   33.2510   32.0220 C.ar   39  TYR39       0.1957
     64  OH        57.2390   33.7150   31.2300 O.3    39  TYR39      -0.2866
     65  N         64.2520   40.9830   33.7200 N.3   106  VAL106     -0.1245
     66  CA        63.0480   41.4680   34.3770 C.3   106  VAL106      0.1561
     67  C         63.2970   41.6630   35.8990 C.2   106  VAL106      0.2260
     68  O         63.9310   40.8420   36.5790 O.2   106  VAL106     -0.2867
     69  CB        61.8460   40.5110   34.1350 C.3   106  VAL106      0.0252
     70  CG1       60.5720   41.0720   34.7620 C.3   106  VAL106      0.0019
     71  CG2       61.6270   40.2670   32.6470 C.3   106  VAL106      0.0019
     72  N         61.2660   42.5760   39.5160 N.3   108  ILE108     -0.1245
     73  CA        60.0040   42.7950   40.1900 C.3   108  ILE108      0.1561
     74  C         60.2880   43.3580   41.5540 C.2   108  ILE108      0.2260
     75  O         60.9190   42.6960   42.3800 O.2   108  ILE108     -0.2867
     76  CB        59.1710   41.4850   40.2540 C.3   108  ILE108      0.0252
     77  CG1       58.8170   41.0220   38.8280 C.3   108  ILE108      0.0019
     78  CG2       57.9180   41.7120   41.0480 C.3   108  ILE108      0.0019
     79  CD1       58.4600   39.6180   38.7480 C.3   108  ILE108      0.0001
     80  N         63.4000   45.4790   32.3040 N.3   128  ILE128     -0.1245
     81  CA        61.9610   45.6540   32.4280 C.3   128  ILE128      0.1561
     82  C         61.6310   45.6280   33.9230 C.2   128  ILE128      0.2260
     83  O         61.9800   44.6800   34.6420 O.2   128  ILE128     -0.2867
     84  CB        61.1940   44.5400   31.6850 C.3   128  ILE128      0.0252
     85  CG1       61.4900   44.6010   30.1830 C.3   128  ILE128      0.0019
     86  CG2       59.7040   44.6760   31.9410 C.3   128  ILE128      0.0019
     87  CD1       61.2290   43.3090   29.4620 C.3   128  ILE128      0.0001
     88  N         58.7720   45.9670   36.9870 N.3   130  TYR130     -0.1241
     89  CA        57.4480   45.9190   37.5680 C.3   130  TYR130      0.1605
     90  C         57.5880   46.3590   39.0060 C.2   130  TYR130      0.2264
     91  O         58.5510   46.0090   39.6790 O.2   130  TYR130     -0.2867
     92  CB        56.8590   44.4910   37.5670 C.3   130  TYR130      0.0534
     93  CG        56.2730   44.0700   36.2480 C.ar  130  TYR130     -0.0201
     94  CD1       57.0600   43.4600   35.2910 C.ar  130  TYR130     -0.0009
     95  CD2       54.9420   44.3120   35.9480 C.ar  130  TYR130     -0.0009
     96  CE1       56.5460   43.0830   34.0690 C.ar  130  TYR130      0.0417
     97  CE2       54.4080   43.9200   34.7210 C.ar  130  TYR130      0.0417
     98  CZ        55.2300   43.3150   33.7930 C.ar  130  TYR130      0.1957
     99  OH        54.7310   42.9430   32.5820 O.3   130  TYR130     -0.2866
    100  N         55.3860   46.5210   42.6780 N.3   132  ILE132     -0.1245
    101  CA        54.2120   46.1750   43.4190 C.3   132  ILE132      0.1561
    102  C         54.2450   46.9330   44.7540 C.2   132  ILE132      0.2260
    103  O         55.0290   46.6040   45.6520 O.2   132  ILE132     -0.2867
    104  CB        54.1630   44.6600   43.6530 C.3   132  ILE132      0.0252
    105  CG1       54.1610   43.9090   42.3090 C.3   132  ILE132      0.0019
    106  CG2       52.9540   44.2930   44.4960 C.3   132  ILE132      0.0019
    107  CD1       54.3810   42.4280   42.4390 C.3   132  ILE132      0.0001
    108  N         50.6860   49.7100   33.0710 N.3   157  GLU157     -0.1231
    109  CA        50.8840   48.3010   32.9560 C.3   157  GLU157      0.1699
    110  C         51.8910   47.7640   33.9620 C.2   157  GLU157      0.2592
    111  O         51.7400   46.6430   34.4360 O.2   157  GLU157     -0.2718
    112  CB        51.3300   47.9980   31.5500 C.3   157  GLU157      0.0402
    113  CG        50.1620   47.8240   30.6030 C.3   157  GLU157      0.1161
    114  CD        50.4600   48.4020   29.2390 C.2   157  GLU157      0.3649
    115  OE1       49.6980   49.2780   28.7800 O.co2 157  GLU157     -0.2457
    116  OE2       51.4690   47.9940   28.6320 O.co2 157  GLU157     -0.2457
    117  N         52.9080   48.5560   34.2870 N.am  158  PHE158     -0.1976
    118  CA        53.9760   48.0780   35.1630 C.3   158  PHE158      0.1639
    119  C         53.8910   48.4270   36.6420 C.2   158  PHE158      0.2290
    120  O         54.7030   47.9460   37.4250 O.2   158  PHE158     -0.2864
    121  CB        55.3170   48.4790   34.5740 C.3   158  PHE158      0.0560
    122  CG        55.5610   47.8630   33.2420 C.ar  158  PHE158     -0.0200
    123  CD1       55.1550   48.5080   32.0880 C.ar  158  PHE158     -0.0042
    124  CD2       56.1310   46.6080   33.1400 C.ar  158  PHE158     -0.0042
    125  CE1       55.3600   47.9330   30.8620 C.ar  158  PHE158     -0.0003
    126  CE2       56.3350   46.0310   31.9200 C.ar  158  PHE158     -0.0003
    127  CZ        55.9480   46.6890   30.7760 C.ar  158  PHE158     -0.0000
    128  N         51.6140   48.1540   40.0680 N.3   160  LYS160     -0.1245
    129  CA        50.5010   47.4770   40.7040 C.3   160  LYS160      0.1561
    130  C         50.3800   47.9170   42.1530 C.2   160  LYS160      0.2260
    131  O         51.3540   47.8650   42.9080 O.2   160  LYS160     -0.2867
    132  CB        50.6970   45.9680   40.6390 C.3   160  LYS160      0.0271
    133  CG        50.0360   45.3310   39.4200 C.3   160  LYS160      0.0035
    134  CD        50.9260   44.3170   38.7480 C.3   160  LYS160      0.0206
    135  CE        50.9850   44.5670   37.2540 C.3   160  LYS160      0.1093
    136  NZ        49.6600   44.5150   36.5970 N.3   160  LYS160     -0.1314
    137  N         46.8490   38.3620   43.1790 N.3   171  LEU171     -0.1245
    138  CA        47.7870   38.6330   42.1100 C.3   171  LEU171      0.1561
    139  C         48.3550   37.3040   41.5670 C.2   171  LEU171      0.2260
    140  O         48.5520   37.1460   40.3780 O.2   171  LEU171     -0.2867
    141  CB        48.9110   39.5480   42.6120 C.3   171  LEU171      0.0270
    142  CG        49.8380   40.1330   41.5530 C.3   171  LEU171      0.0019
    143  CD1       49.0500   40.9100   40.5200 C.3   171  LEU171      0.0001
    144  CD2       50.9100   41.0250   42.1990 C.3   171  LEU171      0.0001
    145  N         45.7430   35.7350   39.3210 N.3   174  GLU174     -0.1231
    146  CA        45.7150   36.3650   38.0140 C.3   174  GLU174      0.1699
    147  C         46.8990   35.8910   37.1760 C.2   174  GLU174      0.2592
    148  O         46.7680   35.6430   35.9680 O.2   174  GLU174     -0.2718
    149  CB        45.7650   37.8890   38.1620 C.3   174  GLU174      0.0402
    150  CG        45.6610   38.6240   36.8280 C.3   174  GLU174      0.1161
    151  CD        45.7500   40.1420   36.9550 C.2   174  GLU174      0.3649
    152  OE1       45.3910   40.6890   38.0300 O.co2 174  GLU174     -0.2457
    153  OE2       46.1890   40.7820   35.9700 O.co2 174  GLU174     -0.2457
    154  N         48.0660   35.7720   37.8200 N.am  175  LEU175     -0.1980
    155  CA        49.2630   35.3290   37.1270 C.3   175  LEU175      0.1596
    156  C         49.0180   33.9370   36.4900 C.2   175  LEU175      0.2287
    157  O         49.3320   33.7110   35.3250 O.2   175  LEU175     -0.2864
    158  CB        50.4600   35.2800   38.1020 C.3   175  LEU175      0.0297
    159  CG        51.7630   34.6160   37.6550 C.3   175  LEU175      0.0022
    160  CD1       52.1990   35.1560   36.3590 C.3   175  LEU175      0.0001
    161  CD2       52.8480   34.8630   38.6800 C.3   175  LEU175      0.0001
    162  N         47.2980   33.4860   33.2550 N.3   178  LYS178     -0.1245
    163  CA        48.0140   33.9280   32.0680 C.3   178  LYS178      0.1561
    164  C         49.1000   32.9860   31.6500 C.2   178  LYS178      0.2260
    165  O         49.9390   33.3590   30.8490 O.2   178  LYS178     -0.2867
    166  CB        48.6100   35.3160   32.2840 C.3   178  LYS178      0.0271
    167  CG        47.6410   36.3030   32.8950 C.3   178  LYS178      0.0035
    168  CD        46.8130   36.9750   31.8550 C.3   178  LYS178      0.0206
    169  CE        45.8780   38.0100   32.4720 C.3   178  LYS178      0.1093
    170  NZ        46.6110   39.0730   33.2230 N.3   178  LYS178     -0.1314
    171  N         53.3790   27.2520   24.7320 N.3   182  ILE182     -0.1245
    172  CA        53.5380   27.8400   23.4000 C.3   182  ILE182      0.1561
    173  C         54.3170   27.0060   22.3900 C.2   182  ILE182      0.2260
    174  O         55.1930   26.2020   22.7130 O.2   182  ILE182     -0.2867
    175  CB        54.2240   29.1880   23.5120 C.3   182  ILE182      0.0252
    176  CG1       53.4890   30.0550   24.5050 C.3   182  ILE182      0.0019
    177  CG2       54.2280   29.9170   22.1680 C.3   182  ILE182      0.0019
    178  CD1       54.3250   31.2030   25.0030 C.3   182  ILE182      0.0001
@<TRIPOS>BOND
     1   177   175    1
     2   173   174    2
     3   173   172    1
     4   172   175    1
     5   172   171    1
     6   175   176    1
     7   176   178    1
     8   116   114   ar
     9   115   114   ar
    10   114   113    1
    11    87    85    1
    12    85    84    1
    13     7     5    1
    14     1     2    1
    15   113   112    1
    16   127   125   ar
    17   127   126   ar
    18   165   164    2
    19   125   123   ar
    20     2     5    1
    21     2     3    1
    22    64    63    1
    23     5     6    1
    24   112   109    1
    25   164   163    1
    26    84    86    1
    27    84    81    1
    28   168   169    1
    29   168   167    1
    30   126   124   ar
    31    63    61   ar
    32    63    62   ar
    33    61    59   ar
    34   163   166    1
    35   163   162    1
    36   123   122   ar
    37   166   167    1
    38    80    81    1
    39     3     4    2
    40    81    82    1
    41   169   170    1
    42    99    98    1
    43    71    69    1
    44    53    54    1
    45    62    60   ar
    46    59    58   ar
    47   109   108    1
    48   109   110    1
    49   124   122   ar
    50   122   121    1
    51    60    58   ar
    52    58    57    1
    53    54    57    1
    54    54    55    1
    55    65    66    1
    56    98    96   ar
    57    98    97   ar
    58    82    83    2
    59   110   117   am
    60   110   111    2
    61    96    94   ar
    62    69    66    1
    63    69    70    1
    64   117   118    1
    65    66    67    1
    66   121   118    1
    67    55    56    2
    68    97    95   ar
    69   118   119    1
    70    52    50    1
    71    94    93   ar
    72   157   156    2
    73     8     9    1
    74    67    68    2
    75    95    93   ar
    76   148   147    2
    77   153   151   ar
    78    93    92    1
    79    51    50    1
    80   160   159    1
    81    50    49    1
    82   156   155    1
    83    48    47    2
    84   136   135    1
    85   119   120    2
    86    49    46    1
    87     9    12    1
    88     9    10    1
    89   150   151    1
    90   150   149    1
    91    12    13    1
    92   151   152   ar
    93    88    89    1
    94    14    13    1
    95    46    47    1
    96    46    45    1
    97   155   154    1
    98   155   158    1
    99   147   154   am
   100   147   146    1
   101   135   134    1
   102    13    15    1
   103    92    89    1
   104    89    90    1
   105   159   158    1
   106   159   161    1
   107   146   149    1
   108   146   145    1
   109    10    11    2
   110   134   133    1
   111    79    77    1
   112    77    76    1
   113    90    91    2
   114   133   132    1
   115    72    73    1
   116   128   129    1
   117    43    42    1
   118    41    40    2
   119    73    76    1
   120    73    74    1
   121    76    78    1
   122   140   139    2
   123   143   142    1
   124   132   129    1
   125   129   130    1
   126    40    39    1
   127    42    39    1
   128    42    44    1
   129   142   144    1
   130   142   141    1
   131    74    75    2
   132   139   138    1
   133    39    38    1
   134    26    25   ar
   135    26    24   ar
   136    16    17    1
   137   138   141    1
   138   138   137    1
   139   130   131    2
   140    25    23   ar
   141    24    22   ar
   142   105   107    1
   143   105   104    1
   144   100   101    1
   145    23    21   ar
   146    22    21   ar
   147    17    20    1
   148    17    18    1
   149    37    35   ar
   150    37    36   ar
   151    21    20    1
   152   101   104    1
   153   101   102    1
   154    35    33   ar
   155   104   106    1
   156    36    34   ar
   157    18    19    2
   158   102   103    2
   159    33    32   ar
   160    34    32   ar
   161    30    29    2
   162    32    31    1
   163    29    28    1
   164    31    28    1
   165    28    27    1
