@<TRIPOS>MOLECULE
tmp/1xdjB00.pdb
 122 119 0 0 0
SMALL
GASTEIGER

@<TRIPOS>ATOM
      1  N        131.6800   97.6440   60.2270 N.3    99  LYS99      -0.1231
      2  CA       131.9880   96.2670   59.8470 C.3    99  LYS99       0.1693
      3  C        133.3240   95.7810   60.3780 C.2    99  LYS99       0.2592
      4  O        134.2880   96.5450   60.4420 O.2    99  LYS99      -0.2718
      5  CB       131.9810   96.1220   58.3230 C.3    99  LYS99       0.0285
      6  CG       130.7940   95.3590   57.7770 C.3    99  LYS99       0.0035
      7  CD       130.7730   95.3910   56.2510 C.3    99  LYS99       0.0206
      8  CE       129.7180   94.4350   55.6840 C.3    99  LYS99       0.1093
      9  NZ       128.3440   94.7040   56.2080 N.3    99  LYS99      -0.1314
     10  N        133.3660   94.5100   60.7710 N.am  100  PHE100     -0.1962
     11  CA       134.5910   93.8870   61.2610 C.3   100  PHE100      0.1771
     12  C        135.3090   93.3660   60.0150 C.2   100  PHE100      0.2619
     13  O        134.9530   92.3130   59.4770 O.2   100  PHE100     -0.2715
     14  CB       134.2730   92.7160   62.1910 C.3   100  PHE100      0.0574
     15  CG       135.4800   92.1790   62.9330 C.ar  100  PHE100     -0.0200
     16  CD1      136.2110   93.0000   63.7910 C.ar  100  PHE100     -0.0042
     17  CD2      135.8590   90.8520   62.8020 C.ar  100  PHE100     -0.0042
     18  CE1      137.2960   92.5080   64.5040 C.ar  100  PHE100     -0.0003
     19  CE2      136.9470   90.3480   63.5130 C.ar  100  PHE100     -0.0003
     20  CZ       137.6660   91.1830   64.3660 C.ar  100  PHE100     -0.0000
     21  N        136.3060   94.1180   59.5550 N.am  101  PHE101     -0.1974
     22  CA       137.0590   93.7620   58.3510 C.3   101  PHE101      0.1639
     23  C        136.0860   93.5420   57.1890 C.2   101  PHE101      0.2290
     24  O        135.1340   94.3110   57.0250 O.2   101  PHE101     -0.2864
     25  CB       137.9300   92.5170   58.5940 C.3   101  PHE101      0.0560
     26  CG       139.0480   92.7500   59.5690 C.ar  101  PHE101     -0.0200
     27  CD1      138.8670   92.5200   60.9210 C.ar  101  PHE101     -0.0042
     28  CD2      140.2690   93.2440   59.1320 C.ar  101  PHE101     -0.0042
     29  CE1      139.8820   92.7780   61.8290 C.ar  101  PHE101     -0.0003
     30  CE2      141.3020   93.5100   60.0280 C.ar  101  PHE101     -0.0003
     31  CZ       141.1130   93.2770   61.3840 C.ar  101  PHE101     -0.0000
     32  N        131.3980   95.6660   64.7380 N.3   107  TYR107     -0.1241
     33  CA       131.9620   95.8950   66.0500 C.3   107  TYR107      0.1605
     34  C        131.8270   97.3590   66.4620 C.2   107  TYR107      0.2264
     35  O        131.4090   98.2110   65.6730 O.2   107  TYR107     -0.2867
     36  CB       133.4390   95.4810   66.0810 C.3   107  TYR107      0.0534
     37  CG       134.3990   96.4690   65.4480 C.ar  107  TYR107     -0.0201
     38  CD1      134.6500   96.4610   64.0800 C.ar  107  TYR107     -0.0009
     39  CD2      135.0530   97.4180   66.2310 C.ar  107  TYR107     -0.0009
     40  CE1      135.5310   97.3780   63.5080 C.ar  107  TYR107      0.0417
     41  CE2      135.9280   98.3300   65.6810 C.ar  107  TYR107      0.0417
     42  CZ       136.1660   98.3120   64.3220 C.ar  107  TYR107      0.1957
     43  OH       137.0350   99.2380   63.7940 O.3   107  TYR107     -0.2866
     44  N        144.4270   99.3920   65.7550 N.3   150  TYR150     -0.1227
     45  CA       144.0960   99.4920   64.3460 C.3   150  TYR150      0.1736
     46  C        142.5850   99.5610   64.1030 C.2   150  TYR150      0.2595
     47  O        142.1530   99.9870   63.0410 O.2   150  TYR150     -0.2718
     48  CB       144.7110   98.3020   63.5990 C.3   150  TYR150      0.0548
     49  CG       144.8500   98.5020   62.1110 C.ar  150  TYR150     -0.0200
     50  CD1      143.8030   98.1980   61.2420 C.ar  150  TYR150     -0.0009
     51  CD2      146.0420   98.9720   61.5670 C.ar  150  TYR150     -0.0009
     52  CE1      143.9450   98.3500   59.8690 C.ar  150  TYR150      0.0417
     53  CE2      146.1960   99.1270   60.1960 C.ar  150  TYR150      0.0417
     54  CZ       145.1410   98.8100   59.3540 C.ar  150  TYR150      0.1957
     55  OH       145.2930   98.9420   57.9960 O.3   150  TYR150     -0.2866
     56  N        141.7860   99.1690   65.0930 N.am  151  LEU151     -0.1980
     57  CA       140.3300   99.1860   64.9420 C.3   151  LEU151      0.1596
     58  C        139.6470  100.3550   65.6680 C.2   151  LEU151      0.2287
     59  O        138.4320  100.5620   65.5420 O.2   151  LEU151     -0.2864
     60  CB       139.7290   97.8480   65.4140 C.3   151  LEU151      0.0297
     61  CG       140.1490   96.5630   64.6660 C.3   151  LEU151      0.0022
     62  CD1      139.5540   95.3380   65.3710 C.3   151  LEU151      0.0001
     63  CD2      139.6940   96.6010   63.2020 C.3   151  LEU151      0.0001
     64  N        141.2960  107.0820   62.3860 N.3   158  TRP158     -0.1241
     65  CA       141.7930  105.7270   62.6310 C.3   158  TRP158      0.1605
     66  C        143.2230  105.8190   63.1590 C.2   158  TRP158      0.2264
     67  O        144.0300  106.5970   62.6580 O.2   158  TRP158     -0.2867
     68  CB       141.8280  104.8990   61.3430 C.3   158  TRP158      0.0550
     69  CG       140.4970  104.6300   60.7080 C.ar  158  TRP158      0.0003
     70  CD1      140.0930  105.0230   59.4660 C.ar  158  TRP158      0.0946
     71  CD2      139.4210  103.8640   61.2560 C.ar  158  TRP158      0.0152
     72  NE1      138.8340  104.5460   59.2020 N.ar  158  TRP158     -0.2442
     73  CE2      138.3940  103.8330   60.2840 C.ar  158  TRP158      0.0810
     74  CE3      139.2220  103.2000   62.4720 C.ar  158  TRP158      0.0012
     75  CZ2      137.1830  103.1620   60.4920 C.ar  158  TRP158      0.0191
     76  CZ3      138.0170  102.5330   62.6780 C.ar  158  TRP158      0.0001
     77  CH2      137.0140  102.5210   61.6950 C.ar  158  TRP158      0.0015
     78  N        145.9650  104.3020   62.6670 N.3   160  ARG160     -0.1245
     79  CA       146.6040  103.3040   61.8270 C.3   160  ARG160      0.1563
     80  C        148.0190  103.5710   61.3470 C.2   160  ARG160      0.2260
     81  O        148.7270  102.6390   60.9610 O.2   160  ARG160     -0.2867
     82  CB       145.6800  102.9780   60.6580 C.3   160  ARG160      0.0307
     83  CG       144.4900  102.1610   61.1330 C.3   160  ARG160      0.0489
     84  CD       143.3690  102.0370   60.1350 C.3   160  ARG160      0.2205
     85  NE       142.2840  101.2720   60.7330 N.pl3 160  ARG160     -0.0865
     86  CZ       141.1400  100.9910   60.1290 C.cat 160  ARG160      0.5346
     87  NH1      140.9170  101.4160   58.8900 N.pl3 160  ARG160      0.1354
     88  NH2      140.2220  100.2730   60.7610 N.pl3 160  ARG160      0.1354
     89  N        146.2430   93.1600   56.6340 N.3   199  CYS199     -0.1235
     90  CA       145.9690   94.3850   55.9090 C.3   199  CYS199      0.1677
     91  C        147.2770   94.7460   55.2120 C.2   199  CYS199      0.2270
     92  O        148.3310   94.1500   55.4910 O.2   199  CYS199     -0.2867
     93  CB       145.5800   95.4990   56.8750 C.3   199  CYS199      0.0956
     94  SG       144.0400   95.2310   57.7930 S.3   199  CYS199     -0.0801
     95  N        131.6420   98.2780   47.4060 N.3   551  ARG551     -0.1245
     96  CA       132.9150   98.4180   48.0920 C.3   551  ARG551      0.1563
     97  C        133.0560   97.4150   49.2290 C.2   551  ARG551      0.2260
     98  O        134.0940   96.7600   49.3720 O.2   551  ARG551     -0.2867
     99  CB       133.1020   99.8210   48.6660 C.3   551  ARG551      0.0307
    100  CG       134.4990  100.0030   49.2390 C.3   551  ARG551      0.0489
    101  CD       134.5730  101.1610   50.1930 C.3   551  ARG551      0.2205
    102  NE       135.8850  101.2480   50.8290 N.pl3 551  ARG551     -0.0865
    103  CZ       136.4080  100.3020   51.6070 C.cat 551  ARG551      0.5346
    104  NH1      137.6090  100.4730   52.1430 N.pl3 551  ARG551      0.1354
    105  NH2      135.7310   99.1840   51.8480 N.pl3 551  ARG551      0.1354
    106  N        140.2110   92.8280   51.7020 N.3   556  ILE556     -0.1245
    107  CA       140.7650   93.5760   52.8330 C.3   556  ILE556      0.1561
    108  C        142.0020   94.3110   52.3570 C.2   556  ILE556      0.2260
    109  O        142.2380   95.4580   52.7110 O.2   556  ILE556     -0.2867
    110  CB       141.1920   92.6320   53.9860 C.3   556  ILE556      0.0252
    111  CG1      139.9660   91.9830   54.6130 C.3   556  ILE556      0.0019
    112  CG2      141.9480   93.4120   55.0490 C.3   556  ILE556      0.0019
    113  CD1      140.3160   91.0370   55.7220 C.3   556  ILE556      0.0001
    114  N        143.7550   96.4060   49.9540 N.3   558  LYS558     -0.1245
    115  CA       143.3690   97.3000   48.8730 C.3   558  LYS558      0.1561
    116  C        144.1940   97.0100   47.6220 C.2   558  LYS558      0.2260
    117  O        143.7700   97.2970   46.5090 O.2   558  LYS558     -0.2867
    118  CB       143.5480   98.7570   49.3000 C.3   558  LYS558      0.0271
    119  CG       142.7820   99.0690   50.5550 C.3   558  LYS558      0.0035
    120  CD       142.7080  100.5470   50.8180 C.3   558  LYS558      0.0206
    121  CE       141.9050  100.8040   52.0680 C.3   558  LYS558      0.1093
    122  NZ       142.1420  102.1930   52.5420 N.3   558  LYS558     -0.1314
@<TRIPOS>BOND
     1   117   116    2
     2    95    96    1
     3   116   115    1
     4    96    99    1
     5    96    97    1
     6    99   100    1
     7   115   118    1
     8   115   114    1
     9    97    98    2
    10   100   101    1
    11   118   119    1
    12   101   102    1
    13   119   120    1
    14   120   121    1
    15   102   103    2
    16   103   105    1
    17   103   104    1
    18   106   107    1
    19   121   122    1
    20   108   109    2
    21   108   107    1
    22   107   110    1
    23   110   111    1
    24   110   112    1
    25   111   113    1
    26    91    92    2
    27    91    90    1
    28     8     9    1
    29     8     7    1
    30    90    89    1
    31    90    93    1
    32     7     6    1
    33    93    94    1
    34    24    23    2
    35    23    22    1
    36     6     5    1
    37    55    54    1
    38     5     2    1
    39    22    25    1
    40    22    21    1
    41    25    26    1
    42    87    86    1
    43    28    26   ar
    44    28    30   ar
    45    72    70   ar
    46    72    73   ar
    47    54    52   ar
    48    54    53   ar
    49    70    69   ar
    50    13    12    2
    51    21    12   am
    52    26    27   ar
    53     2     1    1
    54     2     3    1
    55    52    50   ar
    56    12    11    1
    57    30    31   ar
    58    86    85    2
    59    86    88    1
    60    84    85    1
    61    84    83    1
    62    53    51   ar
    63    73    75   ar
    64    73    71   ar
    65     3     4    2
    66     3    10   am
    67    75    77   ar
    68    82    83    1
    69    82    79    1
    70    69    71   ar
    71    69    68    1
    72    10    11    1
    73    27    29   ar
    74    81    80    2
    75    50    49   ar
    76    71    74   ar
    77    11    14    1
    78    68    65    1
    79    80    79    1
    80    31    29   ar
    81    51    49   ar
    82    77    76   ar
    83    79    78    1
    84    49    48    1
    85    14    15    1
    86    64    65    1
    87    74    76   ar
    88    65    66    1
    89    67    66    2
    90    17    15   ar
    91    17    19   ar
    92    15    16   ar
    93    47    46    2
    94    63    61    1
    95    40    38   ar
    96    40    42   ar
    97    19    20   ar
    98    48    45    1
    99    16    18   ar
   100    43    42    1
   101    38    37   ar
   102    46    45    1
   103    46    56   am
   104    42    41   ar
   105    45    44    1
   106    20    18   ar
   107    61    62    1
   108    61    60    1
   109    32    33    1
   110    57    56    1
   111    57    60    1
   112    57    58    1
   113    37    36    1
   114    37    39   ar
   115    59    58    2
   116    35    34    2
   117    41    39   ar
   118    33    36    1
   119    33    34    1
