@<TRIPOS>MOLECULE
tmp/1xdjA00.pdb
 93 84 0 0 0
SMALL
GASTEIGER

@<TRIPOS>ATOM
      1  N        148.9690  139.0650   59.2180 N.3   390  ILE390     -0.1245
      2  CA       150.0800  138.1720   59.5230 C.3   390  ILE390      0.1561
      3  C        151.4400  138.8240   59.7530 C.2   390  ILE390      0.2260
      4  O        152.3030  138.2160   60.3900 O.2   390  ILE390     -0.2867
      5  CB       150.2020  137.0850   58.4350 C.3   390  ILE390      0.0252
      6  CG1      148.8210  136.4640   58.1860 C.3   390  ILE390      0.0019
      7  CG2      151.1590  135.9880   58.8840 C.3   390  ILE390      0.0019
      8  CD1      148.2350  135.7410   59.3980 C.3   390  ILE390      0.0001
      9  N        153.7960  141.1340   57.2630 N.3   392  SER392     -0.1217
     10  CA       154.4000  141.9820   56.2520 C.3   392  SER392      0.1889
     11  C        153.3680  142.6960   55.3960 C.2   392  SER392      0.2288
     12  O        152.2340  142.2280   55.2270 O.2   392  SER392     -0.2866
     13  CB       155.3200  141.1510   55.3550 C.3   392  SER392      0.2089
     14  OG       154.6080  140.0730   54.7780 O.3   392  SER392     -0.2183
     15  N        157.1940  144.8130   58.6670 N.3   442  GLU442     -0.1245
     16  CA       158.4300  144.1280   58.2630 C.3   442  GLU442      0.1567
     17  C        159.0910  144.7170   57.0110 C.2   442  GLU442      0.2260
     18  O        159.5740  143.9850   56.1430 O.2   442  GLU442     -0.2867
     19  CB       158.1610  142.6400   58.0200 C.3   442  GLU442      0.0388
     20  CG       157.5700  141.8880   59.2140 C.3   442  GLU442      0.1160
     21  CD       157.3300  140.4170   58.8980 C.2   442  GLU442      0.3649
     22  OE1      156.2830  139.8760   59.3170 O.co2 442  GLU442     -0.2457
     23  OE2      158.1920  139.8070   58.2320 O.co2 442  GLU442     -0.2457
     24  N        162.9510  143.9310   56.6720 N.3   445  ARG445     -0.1245
     25  CA       163.3950  142.5470   56.5300 C.3   445  ARG445      0.1563
     26  C        163.3760  142.0380   55.0980 C.2   445  ARG445      0.2260
     27  O        162.4030  142.2400   54.3710 O.2   445  ARG445     -0.2867
     28  CB       162.5210  141.6400   57.3990 C.3   445  ARG445      0.0307
     29  CG       162.2310  142.2130   58.7710 C.3   445  ARG445      0.0489
     30  CD       161.4150  141.2580   59.6330 C.3   445  ARG445      0.2205
     31  NE       161.1520  141.8320   60.9500 N.pl3 445  ARG445     -0.0865
     32  CZ       160.5540  141.1970   61.9550 C.cat 445  ARG445      0.5346
     33  NH1      160.3710  141.8330   63.1130 N.pl3 445  ARG445      0.1354
     34  NH2      160.1420  139.9370   61.8140 N.pl3 445  ARG445      0.1354
     35  N        154.1390  137.1450   68.1510 N.3   551  GLN551     -0.1245
     36  CA       153.9320  136.1020   67.1540 C.3   551  GLN551      0.1566
     37  C        155.2100  135.4210   66.7180 C.2   551  GLN551      0.2260
     38  O        156.1890  136.0960   66.3650 O.2   551  GLN551     -0.2867
     39  CB       153.2570  136.6950   65.9220 C.3   551  GLN551      0.0367
     40  CG       153.1940  135.7570   64.7300 C.3   551  GLN551      0.0905
     41  CD       152.2690  136.2900   63.6880 C.2   551  GLN551      0.2608
     42  OE1      151.2060  136.7910   64.0170 O.2   551  GLN551     -0.2717
     43  NE2      152.6520  136.1840   62.4260 N.am  551  GLN551     -0.0878
     44  N        156.5190  132.8530   63.9210 N.3   553  ASP553     -0.1239
     45  CA       156.1940  132.1640   62.6740 C.3   553  ASP553      0.1674
     46  C        156.9470  130.8380   62.6560 C.2   553  ASP553      0.2266
     47  O        158.1730  130.8260   62.7110 O.2   553  ASP553     -0.2867
     48  CB       156.6290  132.9860   61.4600 C.3   553  ASP553      0.1410
     49  CG       155.8600  134.2800   61.3150 C.2   553  ASP553      0.3668
     50  OD1      154.6130  134.2230   61.3320 O.co2 553  ASP553     -0.2456
     51  OD2      156.5030  135.3500   61.1660 O.co2 553  ASP553     -0.2456
     52  N        156.4500  128.0190   60.1810 N.3   555  PRO555     -0.2116
     53  CA       155.9550  127.2580   59.0250 C.3   555  PRO555      0.1372
     54  C        156.7140  125.9660   58.7230 C.2   555  PRO555      0.2244
     55  O        156.2390  125.1370   57.9480 O.2   555  PRO555     -0.2868
     56  CB       156.0560  128.2560   57.8850 C.3   555  PRO555      0.0268
     57  CG       157.2390  129.1030   58.2850 C.3   555  PRO555      0.0207
     58  CD       156.9800  129.3270   59.7600 C.3   555  PRO555      0.0892
     59  N        151.8600  131.0700   63.9010 N.3   594  HIS594     -0.1241
     60  CA       151.3710  131.1150   62.5310 C.3   594  HIS594      0.1621
     61  C        151.9810  129.9760   61.7210 C.2   594  HIS594      0.2264
     62  O        153.1920  129.7600   61.7570 O.2   594  HIS594     -0.2867
     63  CB       151.7100  132.4590   61.8620 C.3   594  HIS594      0.0745
     64  CG       151.4090  132.4850   60.3950 C.ar  594  HIS594      0.0817
     65  ND1      150.1290  132.3670   59.8980 N.ar  594  HIS594     -0.2268
     66  CD2      152.2260  132.5500   59.3170 C.ar  594  HIS594      0.1154
     67  CE1      150.1680  132.3570   58.5760 C.ar  594  HIS594      0.1986
     68  NE2      151.4300  132.4670   58.1990 N.ar  594  HIS594     -0.2212
     69  N        151.6000  127.8490   57.7810 N.3   595  CYS595     -0.1235
     70  CA       151.0680  127.8790   56.4280 C.3   595  CYS595      0.1677
     71  C        150.5120  126.5990   55.8390 C.2   595  CYS595      0.2270
     72  O        150.0540  126.6110   54.7070 O.2   595  CYS595     -0.2867
     73  CB       152.1510  128.4110   55.4910 C.3   595  CYS595      0.0956
     74  SG       152.9120  129.9470   56.0920 S.3   595  CYS595     -0.0801
     75  N        147.9880  134.6940   54.8600 N.3   678  CYS678     -0.1221
     76  CA       149.3950  134.8580   55.2410 C.3   678  CYS678      0.1808
     77  C        149.8560  136.3110   55.0820 C.2   678  CYS678      0.2601
     78  O        149.0350  137.2050   54.8980 O.2   678  CYS678     -0.2717
     79  CB       150.2550  133.9390   54.3660 C.3   678  CYS678      0.0970
     80  SG       151.9460  133.6430   54.9690 S.3   678  CYS678     -0.0800
     81  N        151.1680  136.5350   55.1470 N.am  679  GLY679     -0.1957
     82  CA       151.7170  137.8740   55.0040 C.3   679  GLY679      0.1869
     83  C        151.4470  138.5030   53.6520 C.2   679  GLY679      0.2309
     84  O        151.1490  137.7970   52.6940 O.2   679  GLY679     -0.2863
     85  N        153.6980  140.7260   51.8940 N.3   681  LYS681     -0.1245
     86  CA       154.9070  141.2220   51.2380 C.3   681  LYS681      0.1561
     87  C        154.9120  141.0820   49.7080 C.2   681  LYS681      0.2260
     88  O        155.6540  141.8010   49.0200 O.2   681  LYS681     -0.2867
     89  CB       156.1250  140.5040   51.8200 C.3   681  LYS681      0.0271
     90  CG       157.4230  141.2980   51.7510 C.3   681  LYS681      0.0035
     91  CD       158.6020  140.4870   52.2930 C.3   681  LYS681      0.0206
     92  CE       159.8200  141.3700   52.5510 C.3   681  LYS681      0.1093
     93  NZ       159.5440  142.3230   53.6620 N.3   681  LYS681     -0.1314
@<TRIPOS>BOND
     1    88    87    2
     2    87    86    1
     3    86    89    1
     4    86    85    1
     5    90    89    1
     6    90    91    1
     7    91    92    1
     8    92    93    1
     9    84    83    2
    10    83    82    1
    11    79    80    1
    12    79    76    1
    13    27    26    2
    14    72    71    2
    15    14    13    1
    16    75    76    1
    17    78    77    2
    18    82    81    1
    19    77    81   am
    20    77    76    1
    21    26    25    1
    22    12    11    2
    23    13    10    1
    24    11    10    1
    25    73    74    1
    26    73    70    1
    27    71    70    1
    28    18    17    2
    29    10     9    1
    30    70    69    1
    31    25    24    1
    32    25    28    1
    33    17    16    1
    34    28    29    1
    35    56    57    1
    36    56    53    1
    37    55    54    2
    38    19    16    1
    39    19    20    1
    40     6     5    1
    41     6     8    1
    42    68    67   ar
    43    68    66   ar
    44    23    21   ar
    45    16    15    1
    46    57    58    1
    47     5     7    1
    48     5     2    1
    49    67    65   ar
    50    54    53    1
    51    29    30    1
    52    21    20    1
    53    21    22   ar
    54    53    52    1
    55     1     2    1
    56    66    64   ar
    57     2     3    1
    58    30    31    1
    59     3     4    2
    60    58    52    1
    61    65    64   ar
    62    64    63    1
    63    31    32    2
    64    51    49   ar
    65    49    50   ar
    66    49    48    1
    67    48    45    1
    68    61    62    2
    69    61    60    1
    70    34    32    1
    71    63    60    1
    72    32    33    1
    73    43    41   am
    74    60    59    1
    75    46    45    1
    76    46    47    2
    77    45    44    1
    78    41    42    2
    79    41    40    1
    80    40    39    1
    81    39    36    1
    82    38    37    2
    83    37    36    1
    84    36    35    1
