@<TRIPOS>MOLECULE
tmp/1xdkE00.pdb
 154 148 0 0 0
SMALL
GASTEIGER

@<TRIPOS>ATOM
      1  N         55.1310   27.0220  129.0260 N.3    36  PHE36      -0.1241
      2  CA        56.4010   27.2860  129.7250 C.3    36  PHE36       0.1605
      3  C         56.6400   26.1440  130.7250 C.2    36  PHE36       0.2264
      4  O         57.4880   25.2740  130.5300 O.2    36  PHE36      -0.2867
      5  CB        56.3330   28.6110  130.5230 C.3    36  PHE36       0.0534
      6  CG        56.2110   29.8400  129.6620 C.ar   36  PHE36      -0.0203
      7  CD1       57.2490   30.2300  128.8210 C.ar   36  PHE36      -0.0042
      8  CD2       55.0250   30.5780  129.6240 C.ar   36  PHE36      -0.0042
      9  CE1       57.1100   31.3430  127.9410 C.ar   36  PHE36      -0.0003
     10  CE2       54.8800   31.6960  128.7420 C.ar   36  PHE36      -0.0003
     11  CZ        55.9290   32.0670  127.9030 C.ar   36  PHE36      -0.0000
     12  N         57.8470   22.7800  129.0210 N.3    39  VAL39      -0.1231
     13  CA        59.2100   22.7610  128.5300 C.3    39  VAL39       0.1692
     14  C         60.1130   22.4890  129.7130 C.2    39  VAL39       0.2591
     15  O         61.2410   22.0890  129.5510 O.2    39  VAL39      -0.2718
     16  CB        59.6220   24.1190  127.9070 C.3    39  VAL39       0.0266
     17  CG1       61.0270   24.0440  127.4020 C.3    39  VAL39       0.0020
     18  CG2       58.7090   24.4770  126.7520 C.3    39  VAL39       0.0020
     19  N         59.6140   22.7260  130.9110 N.am   40  GLU40      -0.1979
     20  CA        60.3870   22.4470  132.0920 C.3    40  GLU40       0.1602
     21  C         60.2550   20.9560  132.3180 C.2    40  GLU40       0.2287
     22  O         61.1340   20.2210  131.9390 O.2    40  GLU40      -0.2864
     23  CB        59.8250   23.2050  133.2850 C.3    40  GLU40       0.0415
     24  CG        60.5510   22.9300  134.5830 C.3    40  GLU40       0.1163
     25  CD        61.9220   23.6220  134.6800 C.2    40  GLU40       0.3649
     26  OE1       62.7360   23.5470  133.7130 O.co2  40  GLU40      -0.2457
     27  OE2       62.1770   24.2340  135.7510 O.co2  40  GLU40      -0.2457
     28  N         62.3140   18.8430  130.1120 N.3    43  LYS43      -0.1245
     29  CA        63.7470   19.1060  130.3080 C.3    43  LYS43       0.1561
     30  C         64.2260   18.4530  131.5960 C.2    43  LYS43       0.2260
     31  O         65.4130   18.3530  131.8480 O.2    43  LYS43      -0.2867
     32  CB        63.9740   20.6130  130.4080 C.3    43  LYS43       0.0271
     33  CG        65.3670   21.0920  130.0850 C.3    43  LYS43       0.0035
     34  CD        65.5860   22.5140  130.5990 C.3    43  LYS43       0.0206
     35  CE        65.5740   22.5930  132.1510 C.3    43  LYS43       0.1093
     36  NZ        66.8030   22.0180  132.8230 N.3    43  LYS43      -0.1314
     37  N         65.1970   12.8180  128.3090 N.3    48  PHE48      -0.1241
     38  CA        64.6250   13.7410  127.3160 C.3    48  PHE48       0.1605
     39  C         65.6500   14.8230  126.9440 C.2    48  PHE48       0.2264
     40  O         65.7700   15.3060  125.7880 O.2    48  PHE48      -0.2867
     41  CB        63.3630   14.4570  127.8580 C.3    48  PHE48       0.0534
     42  CG        62.8710   15.5500  126.9350 C.ar   48  PHE48      -0.0203
     43  CD1       62.1620   15.2340  125.7750 C.ar   48  PHE48      -0.0042
     44  CD2       63.2990   16.8640  127.1070 C.ar   48  PHE48      -0.0042
     45  CE1       61.9070   16.2000  124.7960 C.ar   48  PHE48      -0.0003
     46  CE2       63.0470   17.8270  126.1290 C.ar   48  PHE48      -0.0003
     47  CZ        62.3510   17.4850  124.9680 C.ar   48  PHE48      -0.0000
     48  N         68.7230   18.5760  119.7730 N.3    53  LEU53      -0.1231
     49  CA        68.0210   19.8390  119.9790 C.3    53  LEU53       0.1693
     50  C         66.7810   19.8580  119.1490 C.2    53  LEU53       0.2592
     51  O         65.7230   19.5420  119.6590 O.2    53  LEU53      -0.2718
     52  CB        68.8880   21.0570  119.6150 C.3    53  LEU53       0.0284
     53  CG        68.2710   22.4690  119.7470 C.3    53  LEU53       0.0019
     54  CD1       67.6750   22.6770  121.1580 C.3    53  LEU53       0.0001
     55  CD2       69.3530   23.5270  119.4380 C.3    53  LEU53       0.0001
     56  N         66.9110   20.2230  117.8780 N.am   54  ASP54      -0.1974
     57  CA        65.7620   20.2720  116.9840 C.3    54  ASP54       0.1709
     58  C         64.7860   19.1140  117.2030 C.2    54  ASP54       0.2293
     59  O         63.6490   19.1700  116.7270 O.2    54  ASP54      -0.2864
     60  CB        66.2070   20.2720  115.5230 C.3    54  ASP54       0.1436
     61  CG        67.2140   21.3540  115.2290 C.2    54  ASP54       0.3671
     62  OD1       67.4280   21.6980  114.0330 O.co2  54  ASP54      -0.2456
     63  OD2       67.7960   21.8500  116.2200 O.co2  54  ASP54      -0.2456
     64  N         63.9820   17.8260  120.4520 N.3    56  GLN56      -0.1231
     65  CA        63.1510   18.1300  121.6300 C.3    56  GLN56       0.1698
     66  C         62.1560   19.2190  121.2220 C.2    56  GLN56       0.2592
     67  O         61.0410   19.2590  121.7020 O.2    56  GLN56      -0.2718
     68  CB        64.0300   18.5940  122.7930 C.3    56  GLN56       0.0381
     69  CG        65.2040   19.5200  122.4110 C.3    56  GLN56       0.0905
     70  CD        66.5090   19.1850  123.1570 C.2    56  GLN56       0.2608
     71  OE1       66.5230   18.3770  124.1120 O.2    56  GLN56      -0.2717
     72  NE2       67.6060   19.8060  122.7280 N.am   56  GLN56      -0.0878
     73  N         62.5730   20.0860  120.3100 N.am   57  VAL57      -0.1980
     74  CA        61.7040   21.1150  119.8030 C.3    57  VAL57       0.1595
     75  C         60.5820   20.3810  119.0770 C.2    57  VAL57       0.2287
     76  O         59.4610   20.8680  119.0060 O.2    57  VAL57      -0.2864
     77  CB        62.4330   22.0480  118.7940 C.3    57  VAL57       0.0276
     78  CG1       61.4280   22.8940  118.0110 C.3    57  VAL57       0.0022
     79  CG2       63.3670   22.9630  119.5260 C.3    57  VAL57       0.0022
     80  N         58.0850   17.9360  121.5300 N.3    60  LEU60      -0.1231
     81  CA        57.1480   18.7720  122.3180 C.3    60  LEU60       0.1693
     82  C         56.0880   19.4260  121.4860 C.2    60  LEU60       0.2591
     83  O         54.9010   19.3380  121.8170 O.2    60  LEU60      -0.2718
     84  CB        57.8630   19.8600  123.1110 C.3    60  LEU60       0.0284
     85  CG        58.5520   19.4490  124.4160 C.3    60  LEU60       0.0019
     86  CD1       59.1270   20.7170  125.0020 C.3    60  LEU60       0.0001
     87  CD2       57.6220   18.7500  125.4020 C.3    60  LEU60       0.0001
     88  N         56.4910   20.0990  120.4150 N.am   61  ARG61      -0.1980
     89  CA        55.4840   20.7060  119.5720 C.3    61  ARG61       0.1597
     90  C         54.5170   19.6210  119.1430 C.2    61  ARG61       0.2287
     91  O         53.3980   19.9120  118.7660 O.2    61  ARG61      -0.2864
     92  CB        56.0910   21.3220  118.3300 C.3    61  ARG61       0.0334
     93  CG        56.9360   22.5080  118.5990 C.3    61  ARG61       0.0492
     94  CD        57.5960   22.8820  117.3270 C.3    61  ARG61       0.2205
     95  NE        56.6360   23.1600  116.2710 N.pl3  61  ARG61      -0.0865
     96  CZ        55.9700   24.3040  116.1800 C.cat  61  ARG61       0.5346
     97  NH1       56.1740   25.2510  117.0910 N.pl3  61  ARG61       0.1354
     98  NH2       55.1280   24.5220  115.1720 N.pl3  61  ARG61       0.1354
     99  N         51.3650   34.5540  123.2030 N.3   208  THR208     -0.1203
    100  CA        52.4780   34.1930  122.3060 C.3   208  THR208      0.1994
    101  C         53.0730   32.7870  122.2980 C.2   208  THR208      0.2617
    102  O         53.3860   32.2660  121.2220 O.2   208  THR208     -0.2717
    103  CB        53.6310   35.1650  122.4830 C.3   208  THR208      0.1784
    104  OG1       54.0450   35.1610  123.8630 O.3   208  THR208     -0.2211
    105  CG2       53.1950   36.5550  122.0350 C.3   208  THR208      0.0376
    106  N         53.2570   32.1820  123.4710 N.am  209  PHE209     -0.1975
    107  CA        53.8220   30.8370  123.4910 C.3   209  PHE209      0.1639
    108  C         52.8340   29.9270  122.7740 C.2   209  PHE209      0.2290
    109  O         53.2000   29.3170  121.7570 O.2   209  PHE209     -0.2864
    110  CB        54.0800   30.3420  124.9180 C.3   209  PHE209      0.0560
    111  CG        55.0790   29.2010  125.0020 C.ar  209  PHE209     -0.0200
    112  CD1       55.3990   28.6280  126.2410 C.ar  209  PHE209     -0.0042
    113  CD2       55.6380   28.6490  123.8440 C.ar  209  PHE209     -0.0042
    114  CE1       56.2420   27.5250  126.3350 C.ar  209  PHE209     -0.0003
    115  CE2       56.4810   27.5480  123.9200 C.ar  209  PHE209     -0.0003
    116  CZ        56.7790   26.9830  125.1710 C.ar  209  PHE209     -0.0000
    117  N         52.8820   30.0530  119.0950 N.3   212  GLU212     -0.1231
    118  CA        54.0140   29.4620  118.3840 C.3   212  GLU212      0.1699
    119  C         53.7430   27.9890  118.1710 C.2   212  GLU212      0.2592
    120  O         54.0500   27.4420  117.1090 O.2   212  GLU212     -0.2718
    121  CB        55.2710   29.6060  119.2220 C.3   212  GLU212      0.0402
    122  CG        56.5860   29.3510  118.5260 C.3   212  GLU212      0.1161
    123  CD        57.7420   29.5560  119.5080 C.2   212  GLU212      0.3649
    124  OE1       57.9830   28.6410  120.3390 O.co2 212  GLU212     -0.2457
    125  OE2       58.3880   30.6400  119.4700 O.co2 212  GLU212     -0.2457
    126  N         53.1860   27.3480  119.1950 N.am  213  MET213     -0.1979
    127  CA        52.8710   25.9430  119.0940 C.3   213  MET213      0.1605
    128  C         51.7380   25.8140  118.1250 C.2   213  MET213      0.2287
    129  O         51.4560   24.7290  117.6450 O.2   213  MET213     -0.2864
    130  CB        52.4370   25.3910  120.4240 C.3   213  MET213      0.0413
    131  CG        53.4570   25.5830  121.4800 C.3   213  MET213      0.0598
    132  SD        54.8710   24.5380  121.2390 S.3   213  MET213     -0.1393
    133  CE        54.8910   23.6130  122.8220 C.3   213  MET213      0.0692
    134  N         51.5930   27.6810  115.3400 N.3   215  GLU215     -0.1231
    135  CA        52.0040   28.1120  114.0090 C.3   215  GLU215      0.1699
    136  C         53.0650   27.1800  113.4450 C.2   215  GLU215      0.2592
    137  O         53.9610   26.7370  114.1720 O.2   215  GLU215     -0.2718
    138  CB        52.5320   29.5470  114.0530 C.3   215  GLU215      0.0402
    139  CG        51.9950   30.4370  112.9300 C.3   215  GLU215      0.1161
    140  CD        50.8570   31.3560  113.3890 C.2   215  GLU215      0.3649
    141  OE1       51.0900   32.1700  114.3170 O.co2 215  GLU215     -0.2457
    142  OE2       49.7430   31.2680  112.8160 O.co2 215  GLU215     -0.2457
    143  N         52.9590   26.8670  112.1550 N.am  216  ALA216     -0.1966
    144  CA        53.9370   25.9780  111.5340 C.3   216  ALA216      0.1713
    145  C         55.2180   26.7420  111.2860 C.2   216  ALA216      0.2458
    146  O         55.2120   27.9730  111.1560 O.2   216  ALA216     -0.2730
    147  CB        53.4120   25.4130  110.2140 C.3   216  ALA216      0.0333
    148  N         56.3460   26.0170  111.2420 N.am  217  PRO217     -0.2727
    149  CA        57.6840   26.5870  111.0060 C.3   217  PRO217      0.1402
    150  C         57.8860   27.1500  109.5820 C.2   217  PRO217      0.2269
    151  O         58.9310   27.8210  109.3630 O.2   217  PRO217     -0.2865
    152  CB        58.6310   25.4150  111.3230 C.3   217  PRO217      0.0296
    153  CG        57.7770   24.1860  111.0640 C.3   217  PRO217      0.0237
    154  CD        56.4300   24.5950  111.6280 C.3   217  PRO217      0.0939
@<TRIPOS>BOND
     1   151   150    2
     2   150   149    1
     3   147   144    1
     4   149   148    1
     5   149   152    1
     6   153   152    1
     7   153   154    1
     8   146   145    2
     9   148   145   am
    10   148   154    1
    11   145   144    1
    12   144   143    1
    13   143   136   am
    14   142   140   ar
    15   139   140    1
    16   139   138    1
    17   140   141   ar
    18   136   135    1
    19   136   137    2
    20   135   138    1
    21   135   134    1
    22    62    61   ar
    23    98    96    1
    24    61    60    1
    25    61    63   ar
    26    60    57    1
    27    96    95    2
    28    96    97    1
    29    95    94    1
    30    59    58    2
    31    57    58    1
    32    57    56    1
    33   120   119    2
    34    94    93    1
    35   129   128    2
    36    56    50   am
    37    78    77    1
    38   128   127    1
    39   119   118    1
    40   119   126   am
    41    92    93    1
    42    92    89    1
    43   118   117    1
    44   118   121    1
    45   122   121    1
    46   122   123    1
    47    91    90    2
    48    77    79    1
    49    77    74    1
    50    76    75    2
    51    75    74    1
    52   127   126    1
    53   127   130    1
    54    90    89    1
    55    50    51    2
    56    50    49    1
    57    55    53    1
    58   125   123   ar
    59   123   124   ar
    60    89    88    1
    61    52    53    1
    62    52    49    1
    63    53    54    1
    64    48    49    1
    65    74    73    1
    66    73    66   am
    67    88    82   am
    68   130   131    1
    69    64    65    1
    70    66    65    1
    71    66    67    2
    72   102   101    2
    73   132   131    1
    74   132   133    1
    75    82    83    2
    76    82    81    1
    77    80    81    1
    78    65    68    1
    79   109   108    2
    80   105   103    1
    81   101   100    1
    82   101   106   am
    83   100   103    1
    84   100    99    1
    85    81    84    1
    86    69    68    1
    87    69    70    1
    88   103   104    1
    89    72    70   am
    90   108   107    1
    91    84    85    1
    92    70    71    2
    93   106   107    1
    94   107   110    1
    95   113   115   ar
    96   113   111   ar
    97   115   116   ar
    98    85    86    1
    99    85    87    1
   100    45    47   ar
   101    45    43   ar
   102   110   111    1
   103    47    46   ar
   104   111   112   ar
   105   116   114   ar
   106    43    42   ar
   107    40    39    2
   108    46    44   ar
   109   112   114   ar
   110    18    16    1
   111    42    44   ar
   112    42    41    1
   113    39    38    1
   114    38    41    1
   115    38    37    1
   116    17    16    1
   117    11     9   ar
   118    11    10   ar
   119    16    13    1
   120     9     7   ar
   121    13    12    1
   122    13    14    1
   123    10     8   ar
   124     7     6   ar
   125     1     2    1
   126    15    14    2
   127     8     6   ar
   128     6     5    1
   129    14    19   am
   130     2     5    1
   131     2     3    1
   132    33    32    1
   133    33    34    1
   134    28    29    1
   135    29    32    1
   136    29    30    1
   137     4     3    2
   138    34    35    1
   139    19    20    1
   140    30    31    2
   141    22    21    2
   142    20    21    1
   143    20    23    1
   144    35    36    1
   145    23    24    1
   146    26    25   ar
   147    24    25    1
   148    25    27   ar
