@<TRIPOS>MOLECULE
tmp/1xdkB00.pdb
 124 116 0 0 0
SMALL
GASTEIGER

@<TRIPOS>ATOM
      1  N          9.3590   28.8180   99.2040 N.3    56  ILE56      -0.1245
      2  CA         7.9660   28.6850   98.7720 C.3    56  ILE56       0.1561
      3  C          7.5550   29.9410   98.0060 C.2    56  ILE56       0.2260
      4  O          7.0630   29.8620   96.8910 O.2    56  ILE56      -0.2867
      5  CB         7.0280   28.4730   99.9860 C.3    56  ILE56       0.0252
      6  CG1        7.4460   27.2110  100.7440 C.3    56  ILE56       0.0019
      7  CG2        5.6140   28.3090   99.5240 C.3    56  ILE56       0.0019
      8  CD1        7.0600   27.2020  102.1840 C.3    56  ILE56       0.0001
      9  N          8.6790   30.1070   94.5240 N.3    59  VAL59      -0.1245
     10  CA         7.9350   29.2260   93.6210 C.3    59  VAL59       0.1561
     11  C          6.6420   29.9370   93.2130 C.2    59  VAL59       0.2260
     12  O          6.1700   29.8470   92.0750 O.2    59  VAL59      -0.2867
     13  CB         7.5540   27.9150   94.3250 C.3    59  VAL59       0.0252
     14  CG1        6.6740   27.0730   93.4040 C.3    59  VAL59       0.0019
     15  CG2        8.8030   27.1520   94.7340 C.3    59  VAL59       0.0019
     16  N          5.5070   30.7050   89.5210 N.3    63  LYS63      -0.1245
     17  CA         4.2360   30.4310   88.8750 C.3    63  LYS63       0.1561
     18  C          3.5550   31.6770   88.2760 C.2    63  LYS63       0.2260
     19  O          2.9840   31.5940   87.1830 O.2    63  LYS63      -0.2867
     20  CB         3.3190   29.6810   89.8510 C.3    63  LYS63       0.0271
     21  CG         3.9620   28.3790   90.3770 C.3    63  LYS63       0.0035
     22  CD         2.9790   27.2220   90.5600 C.3    63  LYS63       0.0206
     23  CE         1.9960   27.4460   91.7180 C.3    63  LYS63       0.1093
     24  NZ         1.0180   26.3090   91.9300 N.3    63  LYS63      -0.1314
     25  N          5.7120   31.0620   82.3210 N.3    68  PHE68      -0.1227
     26  CA         6.3450   30.0570   83.1600 C.3    68  PHE68       0.1736
     27  C          5.4370   28.8690   83.3250 C.2    68  PHE68       0.2596
     28  O          5.7900   27.7530   82.9700 O.2    68  PHE68      -0.2718
     29  CB         6.6790   30.5920   84.5530 C.3    68  PHE68       0.0547
     30  CG         7.4300   29.6110   85.3990 C.ar   68  PHE68      -0.0202
     31  CD1        8.8120   29.5060   85.2980 C.ar   68  PHE68      -0.0042
     32  CD2        6.7580   28.7780   86.2730 C.ar   68  PHE68      -0.0042
     33  CE1        9.5090   28.5890   86.0580 C.ar   68  PHE68      -0.0003
     34  CE2        7.4480   27.8550   87.0390 C.ar   68  PHE68      -0.0003
     35  CZ         8.8270   27.7590   86.9330 C.ar   68  PHE68      -0.0000
     36  N          4.2570   29.1310   83.8670 N.am   69  THR69      -0.1953
     37  CA         3.2930   28.0740   84.1110 C.3    69  THR69       0.1897
     38  C          3.2360   27.1290   82.9350 C.2    69  THR69       0.2313
     39  O          3.5100   25.9350   83.0800 O.2    69  THR69      -0.2863
     40  CB         1.9170   28.6390   84.3370 C.3    69  THR69       0.1794
     41  OG1        2.0380   29.9010   85.0210 O.3    69  THR69      -0.2208
     42  CG2        1.0930   27.6380   85.1690 C.3    69  THR69       0.0378
     43  N          7.0990   20.3560   83.5560 N.3    73  ILE73      -0.1245
     44  CA         7.3600   20.3440   84.9710 C.3    73  ILE73       0.1561
     45  C          8.8140   20.1130   85.2670 C.2    73  ILE73       0.2260
     46  O          9.4260   20.9070   85.9600 O.2    73  ILE73      -0.2867
     47  CB         6.5120   19.2940   85.6900 C.3    73  ILE73       0.0252
     48  CG1        5.0620   19.7740   85.7110 C.3    73  ILE73       0.0019
     49  CG2        7.0430   19.0460   87.0900 C.3    73  ILE73       0.0019
     50  CD1        4.9150   21.2430   86.1460 C.3    73  ILE73       0.0001
     51  N         10.4620   23.1080   84.6130 N.3    76  GLN76      -0.1231
     52  CA        10.1680   24.1430   85.6100 C.3    76  GLN76       0.1698
     53  C         10.9960   23.8350   86.8470 C.2    76  GLN76       0.2592
     54  O         11.8420   24.6380   87.2400 O.2    76  GLN76      -0.2718
     55  CB         8.6790   24.1550   85.9690 C.3    76  GLN76       0.0381
     56  CG         7.8470   24.9430   84.9840 C.3    76  GLN76       0.0905
     57  CD         6.3630   24.9200   85.2970 C.2    76  GLN76       0.2608
     58  OE1        5.5960   25.7460   84.7860 O.2    76  GLN76      -0.2717
     59  NE2        5.9450   23.9700   86.1300 N.am   76  GLN76      -0.0878
     60  N         10.7690   22.6680   87.4460 N.am   77  ILE77      -0.1980
     61  CA        11.5270   22.2700   88.6200 C.3    77  ILE77       0.1595
     62  C         13.0100   22.5160   88.3270 C.2    77  ILE77       0.2287
     63  O         13.7680   23.0000   89.1830 O.2    77  ILE77      -0.2864
     64  CB        11.2980   20.7710   88.9610 C.3    77  ILE77       0.0276
     65  CG1        9.8000   20.5140   89.0990 C.3    77  ILE77       0.0022
     66  CG2       12.0010   20.3860   90.2790 C.3    77  ILE77       0.0022
     67  CD1        9.4590   19.0980   89.5050 C.3    77  ILE77       0.0001
     68  N         13.8920   26.3190   88.3220 N.3    80  LEU80      -0.1231
     69  CA        13.7980   26.7640   89.7210 C.3    80  LEU80       0.1693
     70  C         14.9250   26.1710   90.5590 C.2    80  LEU80       0.2591
     71  O         15.5470   26.8560   91.3880 O.2    80  LEU80      -0.2718
     72  CB        12.4600   26.3420   90.3500 C.3    80  LEU80       0.0284
     73  CG        11.1170   26.9160   89.8850 C.3    80  LEU80       0.0019
     74  CD1        9.9830   26.2570   90.6590 C.3    80  LEU80       0.0001
     75  CD2       11.0960   28.4000   90.0950 C.3    80  LEU80       0.0001
     76  N         15.1650   24.8840   90.3620 N.am   81  LYS81      -0.1980
     77  CA        16.2330   24.2170   91.0750 C.3    81  LYS81       0.1596
     78  C         17.5380   24.9870   90.8160 C.2    81  LYS81       0.2287
     79  O         18.3030   25.2610   91.7330 O.2    81  LYS81      -0.2864
     80  CB        16.3460   22.7830   90.5720 C.3    81  LYS81       0.0298
     81  CG        15.4960   21.7960   91.3170 C.3    81  LYS81       0.0038
     82  CD        16.1250   21.5230   92.6600 C.3    81  LYS81       0.0206
     83  CE        17.3020   20.5810   92.5300 C.3    81  LYS81       0.1093
     84  NZ        16.8050   19.2030   92.2820 N.3    81  LYS81      -0.1314
     85  N         13.1130   19.7610  104.7370 N.3   227  PRO227     -0.2102
     86  CA        12.7130   19.1460  103.4710 C.3   227  PRO227      0.1504
     87  C         12.9430   19.9640  102.2000 C.2   227  PRO227      0.2575
     88  O         13.8280   19.6460  101.3970 O.2   227  PRO227     -0.2718
     89  CB        11.2280   18.8310  103.6980 C.3   227  PRO227      0.0282
     90  CG        10.7820   19.9410  104.6060 C.3   227  PRO227      0.0208
     91  CD        11.9400   19.9720  105.6090 C.3   227  PRO227      0.0893
     92  N         12.1330   21.0070  102.0260 N.am  228  LEU228     -0.1980
     93  CA        12.1830   21.8490  100.8350 C.3   228  LEU228      0.1596
     94  C         13.5630   22.3820  100.5250 C.2   228  LEU228      0.2287
     95  O         13.9420   22.4160   99.3660 O.2   228  LEU228     -0.2864
     96  CB        11.1830   22.9940  100.9710 C.3   228  LEU228      0.0297
     97  CG        10.7260   23.7410   99.7150 C.3   228  LEU228      0.0022
     98  CD1       10.0740   22.8120   98.6940 C.3   228  LEU228      0.0001
     99  CD2        9.7460   24.8210  100.1510 C.3   228  LEU228      0.0001
    100  N         15.2100   19.5100   98.8310 N.3   231  GLU231     -0.1231
    101  CA        14.5610   19.2700   97.5510 C.3   231  GLU231      0.1699
    102  C         14.8120   20.3900   96.5460 C.2   231  GLU231      0.2592
    103  O         14.4350   20.2720   95.3780 O.2   231  GLU231     -0.2718
    104  CB        13.0580   19.0940   97.7760 C.3   231  GLU231      0.0402
    105  CG        12.3490   18.2730   96.7140 C.3   231  GLU231      0.1161
    106  CD        10.8470   18.1790   96.9540 C.2   231  GLU231      0.3649
    107  OE1       10.4260   17.7320   98.0470 O.co2 231  GLU231     -0.2457
    108  OE2       10.0780   18.5530   96.0440 O.co2 231  GLU231     -0.2457
    109  N         15.4570   21.4670   96.9980 N.am  232  MET232     -0.1979
    110  CA        15.7590   22.6200   96.1490 C.3   232  MET232      0.1605
    111  C         17.2520   22.8600   95.9440 C.2   232  MET232      0.2287
    112  O         17.7150   22.9990   94.8160 O.2   232  MET232     -0.2864
    113  CB        15.1220   23.8800   96.7420 C.3   232  MET232      0.0413
    114  CG        13.8060   24.2700   96.1060 C.3   232  MET232      0.0598
    115  SD        14.0340   24.9970   94.4500 S.3   232  MET232     -0.1393
    116  CE        12.3450   25.4240   93.9970 C.3   232  MET232      0.0692
    117  N         21.0140   17.7370   94.7110 N.3   235  ASN235     -0.1240
    118  CA        20.9400   17.0370   93.4360 C.3   235  ASN235      0.1653
    119  C         21.8020   17.7830   92.4270 C.2   235  ASN235      0.2266
    120  O         21.3660   18.7910   91.8720 O.2   235  ASN235     -0.2867
    121  CB        19.4550   16.9250   92.9650 C.3   235  ASN235      0.1155
    122  CG        18.6920   15.8550   93.7040 C.2   235  ASN235      0.2627
    123  OD1       19.2380   15.0530   94.4460 O.2   235  ASN235     -0.2716
    124  ND2       17.4020   15.8110   93.5520 N.am  235  ASN235     -0.0877
@<TRIPOS>BOND
     1    25    26    1
     2    38    39    2
     3    38    37    1
     4    28    27    2
     5    26    27    1
     6    26    29    1
     7    27    36   am
     8    43    44    1
     9    36    37    1
    10    37    40    1
    11    40    41    1
    12    40    42    1
    13    29    30    1
    14    51    52    1
    15    58    57    2
    16    44    45    1
    17    44    47    1
    18    56    57    1
    19    56    55    1
    20    45    46    2
    21    57    59   am
    22    31    30   ar
    23    31    33   ar
    24    30    32   ar
    25    52    55    1
    26    52    53    1
    27    47    48    1
    28    47    49    1
    29    48    50    1
    30    33    35   ar
    31    32    34   ar
    32    53    54    2
    33    53    60   am
    34    35    34   ar
    35    19    18    2
    36    60    61    1
    37    18    17    1
    38    68    69    1
    39    62    61    1
    40    62    63    2
    41    61    64    1
    42    17    16    1
    43    17    20    1
    44    64    65    1
    45    64    66    1
    46    65    67    1
    47    69    72    1
    48    69    70    1
    49    20    21    1
    50    73    75    1
    51    73    72    1
    52    73    74    1
    53    76    70   am
    54    76    77    1
    55    21    22    1
    56    70    71    2
    57    22    23    1
    58    80    77    1
    59    80    81    1
    60    78    77    1
    61    78    79    2
    62    81    82    1
    63    23    24    1
    64   120   119    2
    65    12    11    2
    66    84    83    1
    67   119   118    1
    68    83    82    1
    69   121   118    1
    70   121   122    1
    71    11    10    1
    72    14    13    1
    73   118   117    1
    74   124   122   am
    75    10    13    1
    76    10     9    1
    77   122   123    2
    78   116   115    1
    79    13    15    1
    80   115   114    1
    81   112   111    2
    82   103   102    2
    83   111   110    1
    84   108   106   ar
    85   114   113    1
    86   110   113    1
    87   110   109    1
    88   102   109   am
    89   102   101    1
    90   105   106    1
    91   105   104    1
    92     4     3    2
    93   106   107   ar
    94   101   104    1
    95   101   100    1
    96     3     2    1
    97    98    97    1
    98     2     1    1
    99     2     5    1
   100    95    94    2
   101     7     5    1
   102    97    99    1
   103    97    96    1
   104     5     6    1
   105    94    93    1
   106     6     8    1
   107    93    96    1
   108    93    92    1
   109    88    87    2
   110    92    87   am
   111    87    86    1
   112    86    89    1
   113    86    85    1
   114    89    90    1
   115    90    91    1
   116    85    91    1
