@<TRIPOS>MOLECULE
tmp/1xdnA00.pdb
 208 198 0 0 0
SMALL
GASTEIGER

@<TRIPOS>ATOM
      1  N         38.3390   17.7470   22.6190 N.3     7  TYR7       -0.1227
      2  CA        37.7220   18.1740   21.3830 C.3     7  TYR7        0.1736
      3  C         37.7200   16.9160   20.5390 C.2     7  TYR7        0.2595
      4  O         37.9540   15.8020   21.0510 O.2     7  TYR7       -0.2718
      5  CB        38.4590   19.3890   20.7830 C.3     7  TYR7        0.0548
      6  CG        37.6490   20.0580   19.6930 C.ar    7  TYR7       -0.0200
      7  CD1       36.4900   20.7490   19.9890 C.ar    7  TYR7       -0.0009
      8  CD2       38.0110   19.9510   18.3540 C.ar    7  TYR7       -0.0009
      9  CE1       35.7250   21.3210   18.9860 C.ar    7  TYR7        0.0417
     10  CE2       37.2370   20.5200   17.3480 C.ar    7  TYR7        0.0417
     11  CZ        36.0950   21.1880   17.6710 C.ar    7  TYR7        0.1957
     12  OH        35.3600   21.7450   16.6580 O.3     7  TYR7       -0.2866
     13  N         37.3330   17.0490   19.2950 N.am    8  ILE8       -0.1966
     14  CA        37.1150   15.9010   18.4480 C.3     8  ILE8        0.1727
     15  C         38.0890   15.8200   17.3020 C.2     8  ILE8        0.2616
     16  O         38.7500   16.8030   16.9170 O.2     8  ILE8       -0.2715
     17  CB        35.6940   15.9260   17.8890 C.3     8  ILE8        0.0290
     18  CG1       35.4450   17.2220   17.1120 C.3     8  ILE8        0.0022
     19  CG2       34.7040   15.7590   19.0160 C.3     8  ILE8        0.0023
     20  CD1       34.2560   17.1540   16.2120 C.3     8  ILE8        0.0001
     21  N         38.1800   14.6110   16.7770 N.am    9  GLU9       -0.1963
     22  CA        38.6610   14.4090   15.4280 C.3     9  GLU9        0.1733
     23  C         37.4810   14.4590   14.4520 C.2     9  GLU9        0.2616
     24  O         36.3320   14.2780   14.8390 O.2     9  GLU9       -0.2715
     25  CB        39.4950   13.1290   15.3500 C.3     9  GLU9        0.0429
     26  CG        40.7980   13.3160   16.1370 C.3     9  GLU9        0.1163
     27  CD        41.6130   12.0570   16.3500 C.2     9  GLU9        0.3649
     28  OE1       41.5700   11.1550   15.4840 O.co2   9  GLU9       -0.2457
     29  OE2       42.3080   11.9760   17.3950 O.co2   9  GLU9       -0.2457
     30  N         37.7930   14.7330   13.2060 N.am   10  ILE10      -0.1977
     31  CA        36.7790   14.9500   12.2000 C.3    10  ILE10       0.1596
     32  C         37.0840   14.0560   11.0300 C.2    10  ILE10       0.2287
     33  O         38.2190   13.9980   10.5720 O.2    10  ILE10      -0.2864
     34  CB        36.7570   16.4430   11.7930 C.3    10  ILE10       0.0276
     35  CG1       36.4190   17.3330   12.9930 C.3    10  ILE10       0.0022
     36  CG2       35.7490   16.6630   10.6950 C.3    10  ILE10       0.0022
     37  CD1       36.5480   18.8130   12.7440 C.3    10  ILE10       0.0001
     38  N         33.8520   26.1240    6.6540 N.3    34  CYS34      -0.1221
     39  CA        34.7950   27.1140    7.1540 C.3    34  CYS34       0.1808
     40  C         36.2050   26.5760    6.9870 C.2    34  CYS34       0.2601
     41  O         36.4210   25.3900    6.8000 O.2    34  CYS34      -0.2717
     42  CB        34.5350   27.4270    8.6270 C.3    34  CYS34       0.0970
     43  SG        32.8690   28.0170    9.0120 S.3    34  CYS34      -0.0800
     44  N         37.1900   27.4550    7.0780 N.am   35  GLU35      -0.1965
     45  CA        38.5710   27.0440    6.8780 C.3    35  GLU35       0.1733
     46  C         39.0200   26.0760    7.9690 C.2    35  GLU35       0.2616
     47  O         38.7540   26.2970    9.1540 O.2    35  GLU35      -0.2715
     48  CB        39.4650   28.2810    6.8450 C.3    35  GLU35       0.0429
     49  CG        40.9310   27.9590    6.6070 C.3    35  GLU35       0.1163
     50  CD        41.8120   29.1590    6.3440 C.2    35  GLU35       0.3649
     51  OE1       41.3420   30.3140    6.4710 O.co2  35  GLU35      -0.2457
     52  OE2       43.0120   28.9330    6.0410 O.co2  35  GLU35      -0.2457
     53  N         39.7230   25.0260    7.5520 N.am   36  LYS36      -0.1963
     54  CA        40.4250   24.1400    8.4720 C.3    36  LYS36       0.1728
     55  C         41.8500   24.6590    8.6070 C.2    36  LYS36       0.2616
     56  O         42.5830   24.7140    7.6190 O.2    36  LYS36      -0.2715
     57  CB        40.4060   22.7000    7.9830 C.3    36  LYS36       0.0311
     58  CG        40.8120   21.7160    9.0600 C.3    36  LYS36       0.0038
     59  CD        40.5990   20.2850    8.6360 C.3    36  LYS36       0.0206
     60  CE        40.7450   19.2920    9.7880 C.3    36  LYS36       0.1093
     61  NZ        42.1370   19.2500   10.3000 N.3    36  LYS36      -0.1314
     62  N         42.1910   25.1060    9.8130 N.am   37  VAL37      -0.1963
     63  CA        43.4840   25.7220   10.0860 C.3    37  VAL37       0.1727
     64  C         44.4630   24.6750   10.6180 C.2    37  VAL37       0.2616
     65  O         44.1310   23.8880   11.5060 O.2    37  VAL37      -0.2715
     66  CB        43.3020   26.9140   11.0680 C.3    37  VAL37       0.0290
     67  CG1       44.6440   27.4930   11.5140 C.3    37  VAL37       0.0023
     68  CG2       42.4590   27.9750   10.3730 C.3    37  VAL37       0.0023
     69  N         45.6700   24.6870   10.0540 N.am   38  HIS38      -0.1959
     70  CA        46.7300   23.7600   10.4160 C.3    38  HIS38       0.1787
     71  C         47.6260   24.3520   11.4900 C.2    38  HIS38       0.2621
     72  O         48.6450   24.9920   11.2000 O.2    38  HIS38      -0.2715
     73  CB        47.5390   23.4420    9.1940 C.3    38  HIS38       0.0785
     74  CG        48.5720   22.3850    9.3830 C.ar   38  HIS38       0.0821
     75  ND1       48.2730   21.1210    9.7930 N.ar   38  HIS38      -0.2267
     76  CD2       49.9120   22.4270    9.2750 C.ar   38  HIS38       0.1154
     77  CE1       49.3670   20.3860    9.7810 C.ar   38  HIS38       0.1986
     78  NE2       50.3630   21.1390    9.3890 N.ar   38  HIS38      -0.2212
     79  N         47.2120   24.1710   12.7340 N.am   39  GLY39      -0.1940
     80  CA        47.9770   24.5690   13.9050 C.3    39  GLY39       0.2014
     81  C         47.9680   23.4160   14.8840 C.2    39  GLY39       0.2640
     82  O         48.2310   22.2680   14.5220 O.2    39  GLY39      -0.2714
     83  N         47.6500   23.7270   16.1330 N.am   40  THR40      -0.1936
     84  CA        47.4880   22.6980   17.1440 C.3    40  THR40       0.2028
     85  C         46.2270   23.0060   17.9470 C.2    40  THR40       0.2642
     86  O         45.8480   24.1610   18.1230 O.2    40  THR40      -0.2714
     87  CB        48.7760   22.5870   17.9810 C.3    40  THR40       0.1808
     88  OG1       48.7380   21.4010   18.7760 O.3    40  THR40      -0.2208
     89  CG2       48.9470   23.7560   18.9290 C.3    40  THR40       0.0379
     90  N         45.5600   21.9600   18.3910 N.am   41  ASN41      -0.1971
     91  CA        44.3010   22.1130   19.0930 C.3    41  ASN41       0.1688
     92  C         44.4890   22.8530   20.4140 C.2    41  ASN41       0.2292
     93  O         45.4380   22.5780   21.1570 O.2    41  ASN41      -0.2864
     94  CB        43.7020   20.7270   19.3530 C.3    41  ASN41       0.1181
     95  CG        42.2980   20.7940   19.8740 C.2    41  ASN41       0.2629
     96  OD1       42.0670   20.7820   21.0770 O.2    41  ASN41      -0.2716
     97  ND2       41.3500   20.9070   18.9720 N.am   41  ASN41      -0.0877
     98  N         45.6940   19.3670   23.1030 N.3    60  ARG60      -0.1245
     99  CA        44.8880   18.2430   22.6660 C.3    60  ARG60       0.1563
    100  C         44.5950   17.2640   23.7850 C.2    60  ARG60       0.2260
    101  O         43.4840   16.7320   23.8880 O.2    60  ARG60      -0.2867
    102  CB        45.6300   17.5220   21.5310 C.3    60  ARG60       0.0307
    103  CG        45.1650   16.1300   21.1700 C.3    60  ARG60       0.0489
    104  CD        43.8580   16.1710   20.4720 C.3    60  ARG60       0.2205
    105  NE        43.9550   16.8020   19.1400 N.pl3  60  ARG60      -0.0865
    106  CZ        42.9020   17.2110   18.4280 C.cat  60  ARG60       0.5346
    107  NH1       41.6790   17.0730   18.9250 N.pl3  60  ARG60       0.1354
    108  NH2       43.0640   17.7770   17.2340 N.pl3  60  ARG60       0.1354
    109  N         42.1130   26.7440   17.2620 N.3   107  GLU107     -0.1245
    110  CA        43.3980   26.2970   16.7760 C.3   107  GLU107      0.1567
    111  C         44.4360   27.3750   17.1180 C.2   107  GLU107      0.2260
    112  O         44.2740   28.5390   16.7380 O.2   107  GLU107     -0.2867
    113  CB        43.3570   26.0970   15.2550 C.3   107  GLU107      0.0388
    114  CG        44.4910   25.2090   14.7460 C.3   107  GLU107      0.1160
    115  CD        44.2550   23.7240   14.9430 C.2   107  GLU107      0.3649
    116  OE1       43.2310   23.3360   15.5650 O.co2 107  GLU107     -0.2457
    117  OE2       45.1000   22.9440   14.4420 O.co2 107  GLU107     -0.2457
    118  N         54.1550   23.6130   13.0880 N.3   141  GLN141     -0.1245
    119  CA        54.0920   22.6890   11.9620 C.3   141  GLN141      0.1566
    120  C         55.2720   22.8710   11.0180 C.2   141  GLN141      0.2260
    121  O         55.7630   23.9790   10.8140 O.2   141  GLN141     -0.2867
    122  CB        52.7930   22.8960   11.1710 C.3   141  GLN141      0.0367
    123  CG        51.5360   22.6560   11.9790 C.3   141  GLN141      0.0905
    124  CD        51.3670   21.2120   12.3850 C.2   141  GLN141      0.2608
    125  OE1       52.0820   20.3370   11.9020 O.2   141  GLN141     -0.2717
    126  NE2       50.4080   20.9490   13.2530 N.am  141  GLN141     -0.0878
    127  N         42.5410   30.7350   16.3740 N.3   155  PHE155     -0.1241
    128  CA        41.3890   30.6960   15.4630 C.3   155  PHE155      0.1605
    129  C         40.2590   29.9560   16.1650 C.2   155  PHE155      0.2264
    130  O         40.2920   28.7320   16.2950 O.2   155  PHE155     -0.2867
    131  CB        41.8100   29.9670   14.1940 C.3   155  PHE155      0.0534
    132  CG        40.7570   29.8130   13.1450 C.ar  155  PHE155     -0.0203
    133  CD1       40.4910   30.8050   12.2290 C.ar  155  PHE155     -0.0042
    134  CD2       40.1250   28.5960   12.9940 C.ar  155  PHE155     -0.0042
    135  CE1       39.5590   30.5660   11.1890 C.ar  155  PHE155     -0.0003
    136  CE2       39.2280   28.3650   11.9850 C.ar  155  PHE155     -0.0003
    137  CZ        38.9570   29.3260   11.0760 C.ar  155  PHE155     -0.0000
    138  N         36.8320   28.0860   16.8470 N.3   157  PHE157     -0.1241
    139  CA        35.9170   27.2990   16.0320 C.3   157  PHE157      0.1605
    140  C         34.7670   26.6430   16.7990 C.2   157  PHE157      0.2264
    141  O         33.9100   26.0540   16.1750 O.2   157  PHE157     -0.2867
    142  CB        36.6500   26.3070   15.1140 C.3   157  PHE157      0.0534
    143  CG        37.6420   25.4010   15.8040 C.ar  157  PHE157     -0.0203
    144  CD1       38.9460   25.3290   15.3510 C.ar  157  PHE157     -0.0042
    145  CD2       37.2770   24.5890   16.8710 C.ar  157  PHE157     -0.0042
    146  CE1       39.8600   24.4870   15.9610 C.ar  157  PHE157     -0.0003
    147  CE2       38.1970   23.7700   17.4900 C.ar  157  PHE157     -0.0003
    148  CZ        39.4850   23.7180   17.0360 C.ar  157  PHE157     -0.0000
    149  N         36.1450   31.1960   12.9610 N.3   191  ALA191     -0.1245
    150  CA        35.7530   30.5120   11.7430 C.3   191  ALA191      0.1562
    151  C         34.5110   31.1470   11.1530 C.2   191  ALA191      0.2260
    152  O         33.4910   31.2790   11.8150 O.2   191  ALA191     -0.2867
    153  CB        35.4910   29.0610   12.0460 C.3   191  ALA191      0.0290
    154  N         44.7890   24.1600    4.3370 N.3   230  GLU230     -0.1245
    155  CA        44.7090   22.7260    4.5880 C.3   230  GLU230      0.1567
    156  C         43.4540   22.1210    3.9610 C.2   230  GLU230      0.2260
    157  O         43.4990   21.0390    3.3690 O.2   230  GLU230     -0.2867
    158  CB        44.7440   22.4610    6.0940 C.3   230  GLU230      0.0388
    159  CG        44.4800   21.0170    6.4550 C.3   230  GLU230      0.1160
    160  CD        44.3610   20.7450    7.9290 C.2   230  GLU230      0.3649
    161  OE1       44.7050   21.6020    8.7550 O.co2 230  GLU230     -0.2457
    162  OE2       43.8850   19.6380    8.2490 O.co2 230  GLU230     -0.2457
    163  N         36.2940   22.5200    7.0970 N.3   233  VAL233     -0.1245
    164  CA        35.3980   21.7600    7.9490 C.3   233  VAL233      0.1561
    165  C         33.9790   22.1630    7.5810 C.2   233  VAL233      0.2260
    166  O         33.6690   23.3550    7.4700 O.2   233  VAL233     -0.2867
    167  CB        35.6820   22.0500    9.4320 C.3   233  VAL233      0.0252
    168  CG1       34.6320   21.4420   10.3400 C.3   233  VAL233      0.0019
    169  CG2       37.0720   21.5190    9.8010 C.3   233  VAL233      0.0019
    170  N         29.9240   21.6840    8.5300 N.3   235  ARG235     -0.1245
    171  CA        29.0900   21.3390    9.6670 C.3   235  ARG235      0.1563
    172  C         27.6830   21.9000    9.5080 C.2   235  ARG235      0.2260
    173  O         27.4730   22.9350    8.8950 O.2   235  ARG235     -0.2867
    174  CB        29.7030   21.8300   10.9780 C.3   235  ARG235      0.0307
    175  CG        29.9020   23.3310   11.0470 C.3   235  ARG235      0.0489
    176  CD        30.7820   23.7110   12.2050 C.3   235  ARG235      0.2205
    177  NE        30.0970   23.5430   13.4790 N.pl3 235  ARG235     -0.0865
    178  CZ        30.7120   23.3600   14.6380 C.cat 235  ARG235      0.5346
    179  NH1       32.0340   23.2430   14.7000 N.pl3 235  ARG235      0.1354
    180  NH2       30.0000   23.2430   15.7500 N.pl3 235  ARG235      0.1354
    181  N         29.5390   16.8220   11.3730 N.3   252  ILE252     -0.1245
    182  CA        30.7750   17.5240   11.0630 C.3   252  ILE252      0.1561
    183  C         31.6560   16.6090   10.2380 C.2   252  ILE252      0.2260
    184  O         31.7980   15.4200   10.5450 O.2   252  ILE252     -0.2867
    185  CB        31.4510   18.0500   12.3540 C.3   252  ILE252      0.0252
    186  CG1       32.5690   19.0400   12.0520 C.3   252  ILE252      0.0019
    187  CG2       31.9160   16.9200   13.2740 C.3   252  ILE252      0.0019
    188  CD1       32.9170   19.8870   13.2540 C.3   252  ILE252      0.0001
    189  N         35.2310   16.8350    7.1690 N.3   254  LYS254     -0.1245
    190  CA        36.2950   17.6610    6.6120 C.3   254  LYS254      0.1561
    191  C         36.5690   17.2550    5.1730 C.2   254  LYS254      0.2260
    192  O         36.2830   16.1310    4.7550 O.2   254  LYS254     -0.2867
    193  CB        37.5840   17.5190    7.4280 C.3   254  LYS254      0.0271
    194  CG        38.2370   16.1620    7.2320 C.3   254  LYS254      0.0035
    195  CD        39.3830   15.9050    8.1810 C.3   254  LYS254      0.0206
    196  CE        39.9710   14.5290    7.9570 C.3   254  LYS254      0.1093
    197  NZ        40.6130   14.0280    9.1880 N.3   254  LYS254     -0.1314
    198  N         40.1320   17.8980    2.6360 N.3   256  ARG256     -0.1245
    199  CA        41.4810   18.4430    2.5470 C.3   256  ARG256      0.1563
    200  C         41.9060   18.5600    1.1140 C.2   256  ARG256      0.2260
    201  O         41.4800   17.7900    0.2430 O.2   256  ARG256     -0.2867
    202  CB        42.4930   17.6070    3.3090 C.3   256  ARG256      0.0307
    203  CG        42.3780   17.7740    4.7970 C.3   256  ARG256      0.0489
    204  CD        43.1170   16.7280    5.5520 C.3   256  ARG256      0.2205
    205  NE        43.5810   17.1890    6.8540 N.pl3 256  ARG256     -0.0865
    206  CZ        43.8450   16.3730    7.8560 C.cat 256  ARG256      0.5346
    207  NH1       43.6250   15.0610    7.7510 N.pl3 256  ARG256      0.1354
    208  NH2       44.3410   16.8630    8.9700 N.pl3 256  ARG256      0.1354
@<TRIPOS>BOND
     1   201   200    2
     2   200   199    1
     3   199   198    1
     4   199   202    1
     5   202   203    1
     6   157   156    2
     7   156   155    1
     8   154   155    1
     9   155   158    1
    10   192   191    2
    11   203   204    1
    12   191   190    1
    13   204   205    1
    14    52    50   ar
    15   158   159    1
    16    50    51   ar
    17    50    49    1
    18   159   160    1
    19    49    48    1
    20   190   189    1
    21   190   193    1
    22    38    39    1
    23    41    40    2
    24    48    45    1
    25   205   206    2
    26    45    44    1
    27    45    46    1
    28    40    44   am
    29    40    39    1
    30   163   164    1
    31    39    42    1
    32   194   193    1
    33   194   195    1
    34   166   165    2
    35    53    46   am
    36    53    54    1
    37   165   164    1
    38    56    55    2
    39   207   206    1
    40   206   208    1
    41   160   162   ar
    42   160   161   ar
    43   164   167    1
    44   196   195    1
    45   196   197    1
    46    46    47    2
    47    57    54    1
    48    57    58    1
    49    54    55    1
    50   170   171    1
    51    55    62   am
    52    42    43    1
    53    59    58    1
    54    59    60    1
    55   173   172    2
    56    73    74    1
    57    73    70    1
    58    76    74   ar
    59    76    78   ar
    60    74    75   ar
    61    78    77   ar
    62   167   169    1
    63   167   168    1
    64   172   171    1
    65   171   174    1
    66    77    75   ar
    67    60    61    1
    68    62    63    1
    69    69    70    1
    70    69    64   am
    71    63    64    1
    72    63    66    1
    73   183   184    2
    74   183   182    1
    75    68    66    1
    76    70    71    1
    77    33    32    2
    78    64    65    2
    79    36    34    1
    80   121   120    2
    81   174   175    1
    82   120   119    1
    83    32    31    1
    84   175   176    1
    85   182   181    1
    86   182   185    1
    87    66    67    1
    88   137   135   ar
    89   137   136   ar
    90   151   150    1
    91   151   152    2
    92   122   119    1
    93   122   123    1
    94   135   133   ar
    95    72    71    2
    96    71    79   am
    97   150   153    1
    98   150   149    1
    99    34    31    1
   100    34    35    1
   101   125   124    2
   102   119   118    1
   103   123   124    1
   104   136   134   ar
   105   186   185    1
   106   186   188    1
   107    31    30    1
   108   176   177    1
   109   133   132   ar
   110   185   187    1
   111   124   126   am
   112    79    80    1
   113    37    35    1
   114   134   132   ar
   115   132   131    1
   116    30    23   am
   117   177   178    2
   118    80    81    1
   119   131   128    1
   120   117   115   ar
   121    23    24    2
   122    23    22    1
   123    82    81    2
   124   178   179    1
   125   178   180    1
   126   114   115    1
   127   114   113    1
   128    81    83   am
   129   115   116   ar
   130   142   143    1
   131   142   139    1
   132   113   110    1
   133    25    22    1
   134    25    26    1
   135   144   143   ar
   136   144   146   ar
   137    22    21    1
   138   128   129    1
   139   128   127    1
   140    28    27   ar
   141   143   145   ar
   142   146   148   ar
   143   139   140    1
   144   139   138    1
   145    83    84    1
   146    26    27    1
   147   129   130    2
   148   141   140    2
   149    20    18    1
   150    27    29   ar
   151    12    11    1
   152   112   111    2
   153   110   111    1
   154   110   109    1
   155    21    15   am
   156   145   147   ar
   157    16    15    2
   158   148   147   ar
   159    18    17    1
   160    84    85    1
   161    84    87    1
   162   108   106    1
   163    15    14    1
   164    10    11   ar
   165    10     8   ar
   166    11     9   ar
   167    17    14    1
   168    17    19    1
   169    85    86    2
   170    85    90   am
   171    87    88    1
   172    87    89    1
   173     8     6   ar
   174    90    91    1
   175   106   107    1
   176   106   105    2
   177    14    13    1
   178    97    95   am
   179     9     7   ar
   180    91    94    1
   181    91    92    1
   182   105   104    1
   183    13     3   am
   184    94    95    1
   185     6     7   ar
   186     6     5    1
   187    95    96    2
   188    92    93    2
   189   104   103    1
   190     3     4    2
   191     3     2    1
   192     5     2    1
   193   103   102    1
   194     2     1    1
   195   102    99    1
   196    99    98    1
   197    99   100    1
   198   100   101    2
