@<TRIPOS>MOLECULE
tmp/1xdpB00.pdb
 254 238 0 0 0
SMALL
GASTEIGER

@<TRIPOS>ATOM
      1  N         -3.3530  -36.5260   69.8770 N.3    16  PHE16      -0.1241
      2  CA        -3.9660  -36.3980   68.5740 C.3    16  PHE16       0.1605
      3  C         -5.3790  -36.9680   68.5040 C.2    16  PHE16       0.2264
      4  O         -6.2850  -36.3240   67.9900 O.2    16  PHE16      -0.2867
      5  CB        -3.1080  -37.0850   67.5100 C.3    16  PHE16       0.0534
      6  CG        -3.8980  -37.5380   66.3190 C.ar   16  PHE16      -0.0203
      7  CD1       -4.3050  -36.6260   65.3610 C.ar   16  PHE16      -0.0042
      8  CD2       -4.3320  -38.8520   66.2120 C.ar   16  PHE16      -0.0042
      9  CE1       -5.1360  -37.0130   64.3200 C.ar   16  PHE16      -0.0003
     10  CE2       -5.1640  -39.2430   65.1700 C.ar   16  PHE16      -0.0003
     11  CZ        -5.5670  -38.3190   64.2240 C.ar   16  PHE16      -0.0000
     12  N         -9.3410  -35.5580   67.9490 N.3    20  VAL20      -0.1245
     13  CA       -10.4210  -36.1230   67.1640 C.3    20  VAL20       0.1561
     14  C        -11.6720  -36.0570   68.0130 C.2    20  VAL20       0.2260
     15  O        -12.7380  -35.7130   67.5260 O.2    20  VAL20      -0.2867
     16  CB       -10.0990  -37.5860   66.7430 C.3    20  VAL20       0.0252
     17  CG1      -11.3210  -38.2400   66.1130 C.3    20  VAL20       0.0019
     18  CG2       -8.9330  -37.5900   65.7480 C.3    20  VAL20       0.0019
     19  N        -17.6960  -39.0330   64.6760 N.3    37  PHE37      -0.1241
     20  CA       -16.3360  -38.7880   65.1300 C.3    37  PHE37       0.1605
     21  C        -16.0470  -39.6890   66.3330 C.2    37  PHE37       0.2264
     22  O        -14.8950  -40.0330   66.6070 O.2    37  PHE37      -0.2867
     23  CB       -16.1770  -37.3160   65.5080 C.3    37  PHE37       0.0534
     24  CG       -15.6760  -36.4470   64.3820 C.ar   37  PHE37      -0.0203
     25  CD1      -16.2950  -35.2340   64.0960 C.ar   37  PHE37      -0.0042
     26  CD2      -14.5650  -36.8250   63.6260 C.ar   37  PHE37      -0.0042
     27  CE1      -15.8150  -34.4110   63.0770 C.ar   37  PHE37      -0.0003
     28  CE2      -14.0830  -36.0050   62.6070 C.ar   37  PHE37      -0.0003
     29  CZ       -14.7080  -34.7980   62.3320 C.ar   37  PHE37      -0.0000
     30  N        -14.7340  -42.5600   64.6530 N.3    40  ILE40      -0.1245
     31  CA       -13.3740  -42.4280   64.1800 C.3    40  ILE40       0.1561
     32  C        -12.4450  -42.5450   65.3690 C.2    40  ILE40       0.2260
     33  O        -11.4720  -43.2890   65.3390 O.2    40  ILE40      -0.2867
     34  CB       -13.1600  -41.0870   63.4770 C.3    40  ILE40       0.0252
     35  CG1      -14.0400  -41.0200   62.2290 C.3    40  ILE40       0.0019
     36  CG2      -11.7070  -40.9390   63.0560 C.3    40  ILE40       0.0019
     37  CD1      -14.0410  -39.6700   61.5770 C.3    40  ILE40       0.0001
     38  N        -12.2140  -46.1950   66.4930 N.3    43  ASN43      -0.1225
     39  CA       -11.4790  -46.9390   65.5130 C.3    43  ASN43       0.1785
     40  C         -9.9980  -46.6010   65.5890 C.2    43  ASN43       0.2597
     41  O         -9.1400  -47.4770   65.4460 O.2    43  ASN43      -0.2718
     42  CB       -12.0260  -46.6280   64.1300 C.3    43  ASN43       0.1169
     43  CG       -11.3490  -47.4320   63.0560 C.2    43  ASN43       0.2627
     44  OD1      -11.4360  -48.6610   63.0300 O.2    43  ASN43      -0.2716
     45  ND2      -10.6620  -46.7470   62.1600 N.am   43  ASN43      -0.0877
     46  N         -9.6930  -45.3310   65.8190 N.am   44  ASN44      -0.1974
     47  CA        -8.3010  -44.9070   65.9160 C.3    44  ASN44       0.1688
     48  C         -7.6330  -45.5720   67.1030 C.2    44  ASN44       0.2292
     49  O         -6.4950  -45.9980   67.0300 O.2    44  ASN44      -0.2864
     50  CB        -8.1920  -43.3910   66.0920 C.3    44  ASN44       0.1181
     51  CG        -8.4740  -42.6270   64.8160 C.2    44  ASN44       0.2629
     52  OD1       -8.2500  -43.1260   63.7120 O.2    44  ASN44      -0.2716
     53  ND2       -8.9520  -41.3950   64.9630 N.am   44  ASN44      -0.0877
     54  N         -6.9130  -49.1960   66.4320 N.3    47  GLU47      -0.1245
     55  CA        -5.7080  -49.2730   65.6220 C.3    47  GLU47       0.1567
     56  C         -4.4970  -49.0170   66.5030 C.2    47  GLU47       0.2260
     57  O         -3.4620  -49.6610   66.3640 O.2    47  GLU47      -0.2867
     58  CB        -5.7570  -48.2290   64.5010 C.3    47  GLU47       0.0388
     59  CG        -4.4810  -48.1570   63.6560 C.3    47  GLU47       0.1160
     60  CD        -4.4070  -49.2430   62.5860 C.2    47  GLU47       0.3649
     61  OE1       -5.2080  -50.2090   62.6400 O.co2  47  GLU47      -0.2457
     62  OE2       -3.5390  -49.1260   61.6890 O.co2  47  GLU47      -0.2457
     63  N          0.6050  -49.5500   67.3420 N.3    52  ARG52      -0.1245
     64  CA         1.5280  -48.7160   68.1020 C.3    52  ARG52       0.1563
     65  C          1.8220  -49.2200   69.5010 C.2    52  ARG52       0.2260
     66  O          2.9680  -49.2040   69.9460 O.2    52  ARG52      -0.2867
     67  CB         0.9910  -47.2900   68.1700 C.3    52  ARG52       0.0307
     68  CG         0.4320  -46.8150   66.8480 C.3    52  ARG52       0.0489
     69  CD         0.9310  -45.4320   66.4540 C.3    52  ARG52       0.2205
     70  NE         0.5730  -45.1670   65.0630 N.pl3  52  ARG52      -0.0865
     71  CZ         0.9200  -44.0830   64.3790 C.cat  52  ARG52       0.5346
     72  NH1        1.6450  -43.1340   64.9510 N.pl3  52  ARG52       0.1354
     73  NH2        0.5380  -43.9580   63.1150 N.pl3  52  ARG52       0.1354
     74  N          0.9280  -49.2940   47.4850 N.3   373  TYR373     -0.1227
     75  CA         1.1730  -49.4870   48.9120 C.3   373  TYR373      0.1736
     76  C         -0.1280  -50.0480   49.4650 C.2   373  TYR373      0.2595
     77  O         -0.2100  -51.2200   49.8190 O.2   373  TYR373     -0.2718
     78  CB         1.5460  -48.1430   49.5670 C.3   373  TYR373      0.0548
     79  CG         1.9010  -48.2040   51.0430 C.ar  373  TYR373     -0.0200
     80  CD1        3.0200  -48.9180   51.4960 C.ar  373  TYR373     -0.0009
     81  CD2        1.1180  -47.5350   51.9840 C.ar  373  TYR373     -0.0009
     82  CE1        3.3460  -48.9600   52.8540 C.ar  373  TYR373      0.0417
     83  CE2        1.4290  -47.5710   53.3400 C.ar  373  TYR373      0.0417
     84  CZ         2.5390  -48.2820   53.7730 C.ar  373  TYR373      0.1957
     85  OH         2.8170  -48.3100   55.1260 O.3   373  TYR373     -0.2866
     86  N         -1.1490  -49.2040   49.5130 N.am  374  ARG374     -0.1980
     87  CA        -2.4650  -49.6160   49.9740 C.3   374  ARG374      0.1597
     88  C         -3.4770  -49.0880   48.9650 C.2   374  ARG374      0.2287
     89  O         -3.7460  -47.8830   48.9120 O.2   374  ARG374     -0.2864
     90  CB        -2.7630  -49.0470   51.3620 C.3   374  ARG374      0.0334
     91  CG        -1.8680  -49.5840   52.4630 C.3   374  ARG374      0.0492
     92  CD        -2.4280  -49.2330   53.8320 C.3   374  ARG374      0.2205
     93  NE        -1.4200  -48.6090   54.6820 N.pl3 374  ARG374     -0.0865
     94  CZ        -1.5630  -48.4040   55.9890 C.cat 374  ARG374      0.5346
     95  NH1       -2.6790  -48.7770   56.6090 N.pl3 374  ARG374      0.1354
     96  NH2       -0.5870  -47.8250   56.6780 N.pl3 374  ARG374      0.1354
     97  N          0.6500  -51.8460   56.2770 N.3   404  ARG404     -0.1245
     98  CA         0.2480  -51.9320   57.6870 C.3   404  ARG404      0.1563
     99  C         -1.0140  -52.7690   57.8940 C.2   404  ARG404      0.2260
    100  O         -1.0260  -53.6880   58.7120 O.2   404  ARG404     -0.2867
    101  CB         0.0620  -50.5310   58.2920 C.3   404  ARG404      0.0307
    102  CG         1.3610  -49.9120   58.8160 C.3   404  ARG404      0.0489
    103  CD         1.1470  -48.5140   59.3860 C.3   404  ARG404      0.2205
    104  NE         2.4010  -47.9260   59.8590 N.pl3 404  ARG404     -0.0865
    105  CZ         2.5430  -46.6590   60.2430 C.cat 404  ARG404      0.5346
    106  NH1        1.5060  -45.8310   60.2130 N.pl3 404  ARG404      0.1354
    107  NH2        3.7260  -46.2150   60.6550 N.pl3 404  ARG404      0.1354
    108  N          7.1920  -46.7860   50.3210 N.3   434  HIS434     -0.1241
    109  CA         6.0780  -45.9040   50.6060 C.3   434  HIS434      0.1621
    110  C          5.8860  -44.8070   49.5620 C.2   434  HIS434      0.2264
    111  O          4.8720  -44.1160   49.5670 O.2   434  HIS434     -0.2867
    112  CB         6.2780  -45.3080   52.0050 C.3   434  HIS434      0.0745
    113  CG         5.0650  -44.6390   52.5740 C.ar  434  HIS434      0.0817
    114  ND1        4.9420  -43.2690   52.6610 N.ar  434  HIS434     -0.2268
    115  CD2        3.9310  -45.1530   53.1100 C.ar  434  HIS434      0.1154
    116  CE1        3.7840  -42.9660   53.2280 C.ar  434  HIS434      0.1986
    117  NE2        3.1520  -44.0920   53.5110 N.ar  434  HIS434     -0.2212
    118  N          4.8540  -42.7220   46.4590 N.3   436  LYS436     -0.1245
    119  CA         3.6400  -42.7370   45.6530 C.3   436  LYS436      0.1561
    120  C          4.0250  -42.3650   44.2310 C.2   436  LYS436      0.2260
    121  O          3.8930  -41.2100   43.8250 O.2   436  LYS436     -0.2867
    122  CB         2.6540  -41.7090   46.1990 C.3   436  LYS436      0.0271
    123  CG         1.8370  -42.1970   47.3750 C.3   436  LYS436      0.0035
    124  CD         2.6490  -42.6590   48.5660 C.3   436  LYS436      0.0206
    125  CE         1.6890  -43.2400   49.6010 C.3   436  LYS436      0.1093
    126  NZ         2.1260  -44.5390   50.1870 N.3   436  LYS436     -0.1314
    127  N         -1.3630  -42.3270   48.9460 N.3   458  ASN458     -0.1240
    128  CA        -1.4050  -43.4270   48.0080 C.3   458  ASN458      0.1653
    129  C         -2.5710  -43.4610   47.0460 C.2   458  ASN458      0.2266
    130  O         -3.5620  -42.7340   47.1840 O.2   458  ASN458     -0.2867
    131  CB        -1.2900  -44.7540   48.7420 C.3   458  ASN458      0.1155
    132  CG        -2.0200  -44.7500   50.0220 C.2   458  ASN458      0.2627
    133  OD1       -3.2320  -44.5770   50.0440 O.2   458  ASN458     -0.2716
    134  ND2       -1.2940  -44.9280   51.1180 N.am  458  ASN458     -0.0877
    135  N         -9.8160  -43.2070   50.0470 N.3   463  THR463     -0.1218
    136  CA        -8.8830  -42.3520   50.7530 C.3   463  THR463      0.1862
    137  C         -8.8010  -40.9890   50.0830 C.2   463  THR463      0.2287
    138  O         -8.8730  -39.9560   50.7450 O.2   463  THR463     -0.2866
    139  CB        -7.4940  -43.0200   50.7690 C.3   463  THR463      0.1770
    140  OG1       -7.3350  -43.7290   52.0000 O.3   463  THR463     -0.2211
    141  CG2       -6.3710  -41.9900   50.5970 C.3   463  THR463      0.0375
    142  N        -11.0970  -38.5460   51.6080 N.3   466  LEU466     -0.1231
    143  CA       -11.1110  -38.2370   53.0260 C.3   466  LEU466      0.1693
    144  C         -9.7880  -37.6350   53.4410 C.2   466  LEU466      0.2592
    145  O         -9.6960  -36.9640   54.4570 O.2   466  LEU466     -0.2718
    146  CB       -11.3590  -39.5150   53.8410 C.3   466  LEU466      0.0284
    147  CG       -12.5700  -40.3550   53.4300 C.3   466  LEU466      0.0019
    148  CD1      -12.7710  -41.5180   54.4090 C.3   466  LEU466      0.0001
    149  CD2      -13.8150  -39.4690   53.4020 C.3   466  LEU466      0.0001
    150  N         -8.7630  -37.8900   52.6410 N.am  467  TYR467     -0.1976
    151  CA        -7.4220  -37.4140   52.9370 C.3   467  TYR467      0.1639
    152  C         -7.0080  -36.3210   52.0010 C.2   467  TYR467      0.2290
    153  O         -7.3400  -36.3600   50.8190 O.2   467  TYR467     -0.2864
    154  CB        -6.4070  -38.5370   52.7610 C.3   467  TYR467      0.0560
    155  CG        -6.5960  -39.7140   53.6570 C.ar  467  TYR467     -0.0198
    156  CD1       -7.8450  -40.0150   54.1890 C.ar  467  TYR467     -0.0009
    157  CD2       -5.5270  -40.5470   53.9680 C.ar  467  TYR467     -0.0009
    158  CE1       -8.0180  -41.1020   55.0020 C.ar  467  TYR467      0.0417
    159  CE2       -5.6940  -41.6400   54.7780 C.ar  467  TYR467      0.0417
    160  CZ        -6.9390  -41.9120   55.2940 C.ar  467  TYR467      0.1957
    161  OH        -7.0800  -42.9960   56.1160 O.3   467  TYR467     -0.2866
    162  N          2.7000  -35.3620   58.9140 N.3   537  ASN537     -0.1240
    163  CA         1.7100  -36.0690   59.7050 C.3   537  ASN537      0.1653
    164  C          2.3420  -36.4570   61.0260 C.2   537  ASN537      0.2266
    165  O          1.6410  -36.6320   62.0240 O.2   537  ASN537     -0.2867
    166  CB         1.1970  -37.3070   58.9750 C.3   537  ASN537      0.1155
    167  CG         0.3500  -36.9510   57.7890 C.2   537  ASN537      0.2627
    168  OD1       -0.4940  -36.0550   57.8780 O.2   537  ASN537     -0.2716
    169  ND2        0.5520  -37.6400   56.6740 N.am  537  ASN537     -0.0877
    170  N         -0.1300  -33.0080   62.0430 N.3   563  ARG563     -0.1245
    171  CA        -1.4400  -33.4220   62.5020 C.3   563  ARG563      0.1563
    172  C         -1.4160  -34.5640   63.4800 C.2   563  ARG563      0.2260
    173  O         -2.2940  -34.6480   64.3180 O.2   563  ARG563     -0.2867
    174  CB        -2.3610  -33.7760   61.3230 C.3   563  ARG563      0.0307
    175  CG        -2.1870  -35.1720   60.8250 C.3   563  ARG563      0.0489
    176  CD        -3.5020  -35.8960   60.7630 C.3   563  ARG563      0.2205
    177  NE        -3.2770  -37.3330   60.9070 N.pl3 563  ARG563     -0.0865
    178  CZ        -2.7400  -38.1240   59.9830 C.cat 563  ARG563      0.5346
    179  NH1       -2.3710  -37.6350   58.8080 N.pl3 563  ARG563      0.1354
    180  NH2       -2.5460  -39.4090   60.2560 N.pl3 563  ARG563      0.1354
    181  N         -7.1510  -30.6610   62.8200 N.3   585  VAL585     -0.1231
    182  CA        -7.9700  -31.8470   62.6990 C.3   585  VAL585      0.1692
    183  C         -9.3490  -31.3200   62.3520 C.2   585  VAL585      0.2592
    184  O         -9.9190  -30.5120   63.0890 O.2   585  VAL585     -0.2718
    185  CB        -8.0170  -32.6360   63.9970 C.3   585  VAL585      0.0266
    186  CG1       -9.0470  -33.7330   63.8830 C.3   585  VAL585      0.0020
    187  CG2       -6.6350  -33.2270   64.2820 C.3   585  VAL585      0.0020
    188  N         -9.8730  -31.7650   61.2160 N.am  586  ASP586     -0.1960
    189  CA       -11.1590  -31.3000   60.7350 C.3   586  ASP586      0.1840
    190  C        -11.8460  -32.4380   59.9900 C.2   586  ASP586      0.2621
    191  O        -11.5670  -33.6070   60.2160 O.2   586  ASP586     -0.2715
    192  CB       -10.9320  -30.1090   59.7930 C.3   586  ASP586      0.1450
    193  CG       -12.1860  -29.2710   59.5600 C.2   586  ASP586      0.3671
    194  OD1      -13.3040  -29.7020   59.9150 O.co2 586  ASP586     -0.2456
    195  OD2      -12.0510  -28.1620   59.0000 O.co2 586  ASP586     -0.2456
    196  N        -12.7270  -32.0670   59.0780 N.am  587  ARG587     -0.1977
    197  CA       -13.5080  -32.9880   58.2690 C.3   587  ARG587      0.1597
    198  C        -12.6470  -33.8710   57.3810 C.2   587  ARG587      0.2287
    199  O        -12.9120  -35.0600   57.2190 O.2   587  ARG587     -0.2864
    200  CB       -14.4640  -32.1650   57.4240 C.3   587  ARG587      0.0334
    201  CG       -15.3280  -32.9340   56.5150 C.3   587  ARG587      0.0492
    202  CD       -15.4350  -32.1360   55.2570 C.3   587  ARG587      0.2205
    203  NE       -16.6060  -32.5090   54.4880 N.pl3 587  ARG587     -0.0865
    204  CZ       -17.6360  -31.6990   54.2960 C.cat 587  ARG587      0.5346
    205  NH1      -17.6230  -30.4730   54.8210 N.pl3 587  ARG587      0.1354
    206  NH2      -18.6720  -32.1180   53.5820 N.pl3 587  ARG587      0.1354
    207  N         -9.0220  -35.5850   56.6920 N.3   589  LEU589     -0.1245
    208  CA        -7.8370  -35.9900   57.4260 C.3   589  LEU589      0.1561
    209  C         -6.6290  -35.3720   56.7080 C.2   589  LEU589      0.2260
    210  O         -6.3130  -35.7670   55.5820 O.2   589  LEU589     -0.2867
    211  CB        -7.7070  -37.5100   57.3990 C.3   589  LEU589      0.0270
    212  CG        -6.8250  -38.1510   58.4730 C.3   589  LEU589      0.0019
    213  CD1       -6.2860  -39.4780   57.9660 C.3   589  LEU589      0.0001
    214  CD2       -5.6740  -37.2320   58.8040 C.3   589  LEU589      0.0001
    215  N         -3.3710  -35.0820   55.2590 N.3   591  HIS591     -0.1241
    216  CA        -2.4090  -36.1310   55.0310 C.3   591  HIS591      0.1621
    217  C         -1.1970  -35.7790   54.1430 C.2   591  HIS591      0.2264
    218  O         -0.2320  -36.5090   54.1410 O.2   591  HIS591     -0.2867
    219  CB        -3.1640  -37.3290   54.4470 C.3   591  HIS591      0.0745
    220  CG        -2.3260  -38.5540   54.3300 C.ar  591  HIS591      0.0817
    221  ND1       -1.4250  -38.7480   53.3020 N.ar  591  HIS591     -0.2268
    222  CD2       -2.2000  -39.6280   55.1440 C.ar  591  HIS591      0.1154
    223  CE1       -0.7870  -39.8870   53.4900 C.ar  591  HIS591      0.1986
    224  NE2       -1.2390  -40.4430   54.6040 N.ar  591  HIS591     -0.2212
    225  N          2.1080  -33.7380   52.6560 N.3   593  ARG593     -0.1245
    226  CA         3.3620  -33.3680   53.2490 C.3   593  ARG593      0.1563
    227  C          4.1640  -32.4070   52.4560 C.2   593  ARG593      0.2260
    228  O          4.4820  -32.6650   51.3120 O.2   593  ARG593     -0.2867
    229  CB         4.1840  -34.5890   53.5330 C.3   593  ARG593      0.0307
    230  CG         3.4660  -35.3010   54.6050 C.3   593  ARG593      0.0489
    231  CD         4.0810  -36.5330   55.2650 C.3   593  ARG593      0.2205
    232  NE         4.0770  -37.9120   54.6870 N.pl3 593  ARG593     -0.0865
    233  CZ         3.1430  -38.7950   54.2690 C.cat 593  ARG593      0.5346
    234  NH1        1.8290  -38.7000   54.2550 N.pl3 593  ARG593      0.1354
    235  NH2        3.6290  -39.8470   53.7100 N.pl3 593  ARG593      0.1354
    236  N          7.0840  -38.7000   56.3340 N.3   611  ASP611     -0.1239
    237  CA         6.9120  -37.8900   57.5320 C.3   611  ASP611      0.1674
    238  C          8.3170  -37.8000   58.0880 C.2   611  ASP611      0.2266
    239  O          9.2090  -38.4980   57.6110 O.2   611  ASP611     -0.2867
    240  CB         6.0350  -38.5890   58.5610 C.3   611  ASP611      0.1410
    241  CG         4.5740  -38.5180   58.2320 C.2   611  ASP611      0.3668
    242  OD1        4.1380  -37.4680   57.7220 O.co2 611  ASP611     -0.2456
    243  OD2        3.8580  -39.5080   58.5060 O.co2 611  ASP611     -0.2456
    244  N         13.0190  -46.8480   54.8320 N.3   620  ARG620     -0.1245
    245  CA        11.9710  -47.0020   53.8370 C.3   620  ARG620      0.1563
    246  C         12.2880  -46.2450   52.5800 C.2   620  ARG620      0.2260
    247  O         13.0880  -45.3180   52.5950 O.2   620  ARG620     -0.2867
    248  CB        10.6410  -46.4710   54.3670 C.3   620  ARG620      0.0307
    249  CG         9.8710  -47.3440   55.3260 C.3   620  ARG620      0.0489
    250  CD         8.5410  -46.6470   55.5890 C.3   620  ARG620      0.2205
    251  NE         7.7090  -47.2710   56.6100 N.pl3 620  ARG620     -0.0865
    252  CZ         6.5210  -46.7910   56.9770 C.cat 620  ARG620      0.5346
    253  NH1        6.0440  -45.6860   56.3990 N.pl3 620  ARG620      0.1354
    254  NH2        5.8130  -47.4160   57.9150 N.pl3 620  ARG620      0.1354
@<TRIPOS>BOND
     1   121   120    2
     2   120   119    1
     3   119   122    1
     4   119   118    1
     5   122   123    1
     6   129   130    2
     7   129   128    1
     8   123   124    1
     9    74    75    1
    10   128   131    1
    11   128   127    1
    12   124   125    1
    13   131   132    1
    14    75    76    1
    15    75    78    1
    16    89    88    2
    17    88    87    1
    18    76    86   am
    19    76    77    2
    20    86    87    1
    21   110   111    2
    22   110   109    1
    23    78    79    1
    24   125   126    1
    25    87    90    1
    26   132   133    2
    27   132   134   am
    28   135   136    1
    29   137   138    2
    30   137   136    1
    31   108   109    1
    32   141   139    1
    33   109   112    1
    34   136   139    1
    35   139   140    1
    36   153   152    2
    37    79    80   ar
    38    79    81   ar
    39   228   227    2
    40    90    91    1
    41    80    82   ar
    42   142   143    1
    43    81    83   ar
    44   152   151    1
    45   112   113    1
    46   227   226    1
    47    91    92    1
    48   113   114   ar
    49   113   115   ar
    50   246   247    2
    51   246   245    1
    52   150   151    1
    53   150   144   am
    54   225   226    1
    55   114   116   ar
    56   154   151    1
    57   154   155    1
    58    82    84   ar
    59   143   144    1
    60   143   146    1
    61   115   117   ar
    62   116   117   ar
    63   226   229    1
    64   221   223   ar
    65   221   220   ar
    66    83    84   ar
    67   149   147    1
    68   147   146    1
    69   147   148    1
    70   144   145    2
    71   223   224   ar
    72   229   230    1
    73   206   204    1
    74   155   157   ar
    75   155   156   ar
    76   235   233    1
    77    84    85    1
    78    92    93    1
    79   245   248    1
    80   245   244    1
    81   157   159   ar
    82   218   217    2
    83   217   216    1
    84   156   158   ar
    85   234   233    1
    86   233   232    2
    87   204   203    2
    88   204   205    1
    89   220   219    1
    90   220   222   ar
    91   248   249    1
    92   219   216    1
    93   203   202    1
    94   224   222   ar
    95   230   231    1
    96    93    94    2
    97   232   231    1
    98   159   160   ar
    99   158   160   ar
   100   216   215    1
   101   202   201    1
   102   160   161    1
   103   249   250    1
   104   210   209    2
   105   250   251    1
   106    94    95    1
   107    94    96    1
   108    97    98    1
   109   236   237    1
   110   253   252    1
   111   201   200    1
   112   251   252    2
   113   169   167   am
   114   207   208    1
   115   209   208    1
   116   252   254    1
   117   199   198    2
   118   198   197    1
   119   211   208    1
   120   211   212    1
   121   200   197    1
   122   237   238    1
   123   237   240    1
   124   239   238    2
   125    98    99    1
   126    98   101    1
   127   242   241   ar
   128   167   168    2
   129   167   166    1
   130    99   100    2
   131   213   212    1
   132   241   243   ar
   133   241   240    1
   134   197   196    1
   135   101   102    1
   136   212   214    1
   137   179   178    1
   138   102   103    1
   139   162   163    1
   140   166   163    1
   141   195   193   ar
   142   196   190   am
   143   103   104    1
   144   193   192    1
   145   193   194   ar
   146   163   164    1
   147   192   189    1
   148   104   105    2
   149   178   180    1
   150   178   177    2
   151   190   191    2
   152   190   189    1
   153   106   105    1
   154   105   107    1
   155   189   188    1
   156   176   175    1
   157   176   177    1
   158   175   174    1
   159   164   165    2
   160   188   183   am
   161   174   171    1
   162    37    35    1
   163    62    60   ar
   164   170   171    1
   165    45    43   am
   166    35    34    1
   167    29    28   ar
   168    29    27   ar
   169   183   182    1
   170   183   184    2
   171   171   172    1
   172    60    61   ar
   173    60    59    1
   174    28    26   ar
   175   182   181    1
   176   182   185    1
   177    44    43    2
   178    36    34    1
   179    43    42    1
   180    27    25   ar
   181    73    71    1
   182    34    31    1
   183   172   173    2
   184    26    24   ar
   185    59    58    1
   186    52    51    2
   187   186   185    1
   188   185   187    1
   189    25    24   ar
   190    42    39    1
   191    31    30    1
   192    31    32    1
   193    11     9   ar
   194    11    10   ar
   195     9     7   ar
   196    71    72    1
   197    71    70    2
   198    24    23    1
   199    58    55    1
   200    19    20    1
   201    51    53   am
   202    51    50    1
   203    70    69    1
   204    20    23    1
   205    20    21    1
   206    10     8   ar
   207    33    32    2
   208     7     6   ar
   209    41    40    2
   210    39    40    1
   211    39    38    1
   212    40    46   am
   213    55    54    1
   214    55    56    1
   215    18    16    1
   216    46    47    1
   217    47    50    1
   218    47    48    1
   219    17    16    1
   220     8     6   ar
   221     6     5    1
   222    21    22    2
   223    57    56    2
   224    69    68    1
   225    16    13    1
   226    68    67    1
   227    49    48    2
   228    13    12    1
   229    13    14    1
   230    63    64    1
   231     5     2    1
   232    15    14    2
   233     4     3    2
   234    64    67    1
   235    64    65    1
   236     3     2    1
   237     2     1    1
   238    65    66    2
