@<TRIPOS>MOLECULE
tmp/1xdqC00.pdb
 222 219 0 0 0
SMALL
GASTEIGER

@<TRIPOS>ATOM
      1  N        -88.6710   -7.9750   75.1900 N.3    26  TYR26      -0.1227
      2  CA       -87.4940   -7.3190   74.6030 C.3    26  TYR26       0.1736
      3  C        -86.8600   -8.3370   73.6420 C.2    26  TYR26       0.2595
      4  O        -86.0160   -9.1520   74.0380 O.2    26  TYR26      -0.2718
      5  CB       -86.5370   -6.9830   75.7410 C.3    26  TYR26       0.0548
      6  CG       -85.4230   -6.0400   75.4160 C.ar   26  TYR26      -0.0200
      7  CD1      -84.1200   -6.5000   75.2690 C.ar   26  TYR26      -0.0009
      8  CD2      -85.6550   -4.6760   75.3060 C.ar   26  TYR26      -0.0009
      9  CE1      -83.0770   -5.6220   75.0290 C.ar   26  TYR26       0.0417
     10  CE2      -84.6160   -3.7900   75.0640 C.ar   26  TYR26       0.0417
     11  CZ       -83.3400   -4.2680   74.9300 C.ar   26  TYR26       0.1957
     12  OH       -82.3300   -3.3780   74.7030 O.3    26  TYR26      -0.2866
     13  N        -87.2580   -8.2880   72.3740 N.am   27  ASN27      -0.1960
     14  CA       -86.7660   -9.2710   71.4270 C.3    27  ASN27       0.1819
     15  C        -86.2590   -8.7720   70.1000 C.2    27  ASN27       0.2621
     16  O        -86.5580   -7.6580   69.6720 O.2    27  ASN27      -0.2715
     17  CB       -87.8650  -10.3000   71.1070 C.3    27  ASN27       0.1195
     18  CG       -88.6790  -10.7080   72.3250 C.2    27  ASN27       0.2630
     19  OD1      -89.6420  -10.0330   72.6940 O.2    27  ASN27      -0.2716
     20  ND2      -88.2940  -11.8190   72.9530 N.am   27  ASN27      -0.0877
     21  N        -85.4950   -9.6460   69.4480 N.am   28  ASN28      -0.1958
     22  CA       -84.9770   -9.4000   68.1120 C.3    28  ASN28       0.1819
     23  C        -85.6040  -10.4900   67.2670 C.2    28  ASN28       0.2621
     24  O        -85.3320  -11.6790   67.4510 O.2    28  ASN28      -0.2715
     25  CB       -83.4590   -9.5300   68.0430 C.3    28  ASN28       0.1195
     26  CG       -82.7450   -8.2830   68.4920 C.2    28  ASN28       0.2630
     27  OD1      -83.2440   -7.1640   68.3260 O.2    28  ASN28      -0.2716
     28  ND2      -81.5530   -8.4630   69.0450 N.am   28  ASN28      -0.0877
     29  N        -86.4690  -10.0840   66.3530 N.am   29  PHE29      -0.1960
     30  CA       -87.1390  -11.0360   65.4860 C.3    29  PHE29       0.1771
     31  C        -87.5890  -10.1730   64.3230 C.2    29  PHE29       0.2620
     32  O        -88.7540   -9.7600   64.2300 O.2    29  PHE29      -0.2715
     33  CB       -88.3150  -11.6760   66.2430 C.3    29  PHE29       0.0574
     34  CG       -88.7870  -12.9910   65.6660 C.ar   29  PHE29      -0.0200
     35  CD1      -89.5680  -13.8550   66.4340 C.ar   29  PHE29      -0.0042
     36  CD2      -88.4770  -13.3530   64.3610 C.ar   29  PHE29      -0.0042
     37  CE1      -90.0330  -15.0610   65.9060 C.ar   29  PHE29      -0.0003
     38  CE2      -88.9350  -14.5480   63.8290 C.ar   29  PHE29      -0.0003
     39  CZ       -89.7150  -15.4060   64.6000 C.ar   29  PHE29      -0.0000
     40  N        -86.6230   -9.8880   63.4530 N.am   30  TYR30      -0.1960
     41  CA       -86.8240   -9.0270   62.2850 C.3    30  TYR30       0.1771
     42  C        -87.9570   -9.3940   61.3580 C.2    30  TYR30       0.2619
     43  O        -88.3890   -8.5770   60.5450 O.2    30  TYR30      -0.2715
     44  CB       -85.5250   -8.9010   61.4870 C.3    30  TYR30       0.0574
     45  CG       -84.5470   -7.9720   62.1470 C.ar   30  TYR30      -0.0198
     46  CD1      -84.6250   -7.7130   63.5250 C.ar   30  TYR30      -0.0009
     47  CD2      -83.5600   -7.3250   61.4090 C.ar   30  TYR30      -0.0009
     48  CE1      -83.7490   -6.8270   64.1460 C.ar   30  TYR30       0.0417
     49  CE2      -82.6730   -6.4330   62.0300 C.ar   30  TYR30       0.0417
     50  CZ       -82.7800   -6.1940   63.3960 C.ar   30  TYR30       0.1957
     51  OH       -81.9230   -5.3290   64.0200 O.3    30  TYR30      -0.2866
     52  N        -88.4440  -10.6200   61.4610 N.am   31  GLU31      -0.1977
     53  CA       -89.5630  -11.0020   60.6160 C.3    31  GLU31       0.1602
     54  C        -90.8000  -10.2220   61.1290 C.2    31  GLU31       0.2287
     55  O        -91.8030  -10.0700   60.4230 O.2    31  GLU31      -0.2864
     56  CB       -89.8010  -12.5270   60.6860 C.3    31  GLU31       0.0415
     57  CG       -88.8400  -13.4040   59.8500 C.3    31  GLU31       0.1163
     58  CD       -87.5580  -13.7940   60.5920 C.2    31  GLU31       0.3649
     59  OE1      -86.9680  -14.8390   60.2150 O.co2  31  GLU31      -0.2457
     60  OE2      -87.1490  -13.0620   61.5340 O.co2  31  GLU31      -0.2457
     61  N        -78.0140  -15.6620   77.9390 N.3    83  MET83      -0.1245
     62  CA       -78.2250  -15.4390   76.5180 C.3    83  MET83       0.1570
     63  C        -77.6240  -14.0890   76.1480 C.2    83  MET83       0.2261
     64  O        -78.1700  -13.0350   76.4880 O.2    83  MET83      -0.2867
     65  CB       -79.7270  -15.4610   76.2470 C.3    83  MET83       0.0387
     66  CG       -80.1320  -15.7690   74.8190 C.3    83  MET83       0.0595
     67  SD       -79.5350  -14.5550   73.6540 S.3    83  MET83      -0.1393
     68  CE       -80.5180  -13.0940   74.0920 C.3    83  MET83       0.0692
     69  N        -76.5710  -11.3420   73.3730 N.3    85  CYS85      -0.1221
     70  CA       -76.7830  -10.9020   71.9850 C.3    85  CYS85       0.1808
     71  C        -75.5470  -10.1010   71.6450 C.2    85  CYS85       0.2601
     72  O        -74.9130   -9.5470   72.5490 O.2    85  CYS85      -0.2717
     73  CB       -78.0500  -10.0350   71.8530 C.3    85  CYS85       0.0970
     74  SG       -78.1930   -8.9490   70.3620 S.3    85  CYS85      -0.0800
     75  N        -75.1880  -10.0670   70.3600 N.am   86  VAL86      -0.1965
     76  CA       -73.9990   -9.3470   69.9200 C.3    86  VAL86       0.1727
     77  C        -74.1160   -7.8400   70.1910 C.2    86  VAL86       0.2616
     78  O        -73.1030   -7.1570   70.4010 O.2    86  VAL86      -0.2715
     79  CB       -73.6910   -9.6450   68.4140 C.3    86  VAL86       0.0290
     80  CG1      -74.6960   -8.9630   67.4830 C.3    86  VAL86       0.0023
     81  CG2      -72.2770   -9.2380   68.1060 C.3    86  VAL86       0.0023
     82  N        -75.3550   -7.3390   70.2200 N.am   87  GLU87      -0.1977
     83  CA       -75.6410   -5.9220   70.5110 C.3    87  GLU87       0.1602
     84  C        -75.1500   -5.4940   71.9050 C.2    87  GLU87       0.2287
     85  O        -75.2620   -4.3380   72.2690 O.2    87  GLU87      -0.2864
     86  CB       -77.1410   -5.6390   70.3720 C.3    87  GLU87       0.0415
     87  CG       -77.6120   -5.5910   68.9290 C.3    87  GLU87       0.1163
     88  CD       -79.1100   -5.4570   68.8210 C.2    87  GLU87       0.3649
     89  OE1      -79.6280   -5.4090   67.6900 O.co2  87  GLU87      -0.2457
     90  OE2      -79.7740   -5.4050   69.8770 O.co2  87  GLU87      -0.2457
     91  N        -76.2210   -6.6930   74.9950 N.3    89  TRP89      -0.1241
     92  CA       -77.1340   -6.7870   76.1290 C.3    89  TRP89       0.1605
     93  C        -77.3200   -8.2780   76.3760 C.2    89  TRP89       0.2264
     94  O        -77.2860   -9.0650   75.4360 O.2    89  TRP89      -0.2867
     95  CB       -78.4730   -6.1300   75.8330 C.3    89  TRP89       0.0550
     96  CG       -79.1390   -6.6120   74.6110 C.ar   89  TRP89       0.0003
     97  CD1      -79.1100   -6.0290   73.3770 C.ar   89  TRP89       0.0946
     98  CD2      -80.0220   -7.7310   74.5050 C.ar   89  TRP89       0.0152
     99  NE1      -79.9360   -6.7090   72.5050 N.ar   89  TRP89      -0.2442
    100  CE2      -80.5080   -7.7590   73.1760 C.ar   89  TRP89       0.0810
    101  CE3      -80.4530   -8.7110   75.4040 C.ar   89  TRP89       0.0012
    102  CZ2      -81.4080   -8.7320   72.7260 C.ar   89  TRP89       0.0191
    103  CZ3      -81.3430   -9.6730   74.9580 C.ar   89  TRP89       0.0001
    104  CH2      -81.8120   -9.6770   73.6290 C.ar   89  TRP89       0.0015
    105  N        -79.1800  -11.6190   78.9590 N.3    91  MET91      -0.1245
    106  CA       -80.2400  -12.0840   79.8560 C.3    91  MET91       0.1570
    107  C        -79.7870  -13.4170   80.4610 C.2    91  MET91       0.2261
    108  O        -78.6910  -13.9190   80.1790 O.2    91  MET91      -0.2867
    109  CB       -81.5640  -12.3160   79.0800 C.3    91  MET91       0.0387
    110  CG       -81.9800  -11.1670   78.1990 C.3    91  MET91       0.0595
    111  SD       -83.7390  -11.1600   77.7500 S.3    91  MET91      -0.1393
    112  CE       -83.8620  -11.6680   76.0300 C.3    91  MET91       0.0692
    113  N        -84.7270  -21.7520   79.9480 N.3    95  TRP95      -0.1241
    114  CA       -85.2400  -22.3890   78.7320 C.3    95  TRP95       0.1605
    115  C        -85.7130  -23.8120   79.0160 C.2    95  TRP95       0.2264
    116  O        -85.3790  -24.4040   80.0610 O.2    95  TRP95      -0.2867
    117  CB       -84.1430  -22.4810   77.6610 C.3    95  TRP95       0.0550
    118  CG       -83.5460  -21.1850   77.1990 C.ar   95  TRP95       0.0003
    119  CD1      -82.2630  -20.7390   77.4170 C.ar   95  TRP95       0.0946
    120  CD2      -84.1990  -20.1710   76.4360 C.ar   95  TRP95       0.0152
    121  NE1      -82.0840  -19.5070   76.8340 N.ar   95  TRP95      -0.2442
    122  CE2      -83.2550  -19.1330   76.2240 C.ar   95  TRP95       0.0810
    123  CE3      -85.4920  -20.0320   75.9140 C.ar   95  TRP95       0.0012
    124  CZ2      -83.5690  -17.9690   75.5080 C.ar   95  TRP95       0.0191
    125  CZ3      -85.8050  -18.8740   75.2010 C.ar   95  TRP95       0.0001
    126  CH2      -84.8410  -17.8570   75.0040 C.ar   95  TRP95       0.0015
    127  N        -85.5260  -20.9310   59.1300 N.3   120  THR120     -0.1218
    128  CA       -86.7550  -20.4320   59.7350 C.3   120  THR120      0.1862
    129  C        -87.8790  -20.4890   58.6940 C.2   120  THR120      0.2287
    130  O        -87.6350  -20.4490   57.4770 O.2   120  THR120     -0.2866
    131  CB       -86.5900  -18.9790   60.1810 C.3   120  THR120      0.1770
    132  OG1      -85.6310  -18.9120   61.2410 O.3   120  THR120     -0.2211
    133  CG2      -87.9180  -18.4040   60.6330 C.3   120  THR120      0.0375
    134  N        -82.5070   -8.0720   55.7920 N.3   139  LEU139     -0.1245
    135  CA       -82.0220   -9.4500   55.7850 C.3   139  LEU139      0.1561
    136  C        -82.7160  -10.2360   54.6620 C.2   139  LEU139      0.2260
    137  O        -83.8950  -10.0220   54.3740 O.2   139  LEU139     -0.2867
    138  CB       -82.3530  -10.1450   57.1000 C.3   139  LEU139      0.0270
    139  CG       -82.0920   -9.4390   58.4100 C.3   139  LEU139      0.0019
    140  CD1      -82.5360  -10.3640   59.5220 C.3   139  LEU139      0.0001
    141  CD2      -80.6240   -9.0760   58.5410 C.3   139  LEU139      0.0001
    142  N        -84.7560  -16.5210   57.2260 N.3   143  TYR143     -0.1241
    143  CA       -83.5940  -16.4220   58.1000 C.3   143  TYR143      0.1605
    144  C        -82.9200  -17.7740   58.0860 C.2   143  TYR143      0.2264
    145  O        -83.5810  -18.7830   58.2250 O.2   143  TYR143     -0.2867
    146  CB       -84.0520  -16.0940   59.5190 C.3   143  TYR143      0.0534
    147  CG       -82.9410  -15.7250   60.4520 C.ar  143  TYR143     -0.0201
    148  CD1      -82.1530  -16.7010   61.0440 C.ar  143  TYR143     -0.0009
    149  CD2      -82.7010  -14.3930   60.7770 C.ar  143  TYR143     -0.0009
    150  CE1      -81.1570  -16.3620   61.9460 C.ar  143  TYR143      0.0417
    151  CE2      -81.7070  -14.0370   61.6790 C.ar  143  TYR143      0.0417
    152  CZ       -80.9360  -15.0260   62.2680 C.ar  143  TYR143      0.1957
    153  OH       -79.9630  -14.6890   63.2030 O.3   143  TYR143     -0.2866
    154  N        -90.4690  -15.3280   70.8960 N.3   172  ASN172     -0.1240
    155  CA       -89.2270  -16.0430   71.1340 C.3   172  ASN172      0.1653
    156  C        -89.0040  -17.1600   70.1240 C.2   172  ASN172      0.2266
    157  O        -88.2080  -18.0650   70.3550 O.2   172  ASN172     -0.2867
    158  CB       -89.1790  -16.6170   72.5450 C.3   172  ASN172      0.1155
    159  CG       -89.2050  -15.5420   73.5970 C.2   172  ASN172      0.2627
    160  OD1      -90.2700  -15.0390   73.9540 O.2   172  ASN172     -0.2716
    161  ND2      -88.0310  -15.1610   74.0880 N.am  172  ASN172     -0.0877
    162  N        -87.0160  -23.4210   68.5750 N.3   177  ARG177     -0.1245
    163  CA       -85.9860  -22.4130   68.4100 C.3   177  ARG177      0.1563
    164  C        -84.6290  -22.9040   68.9290 C.2   177  ARG177      0.2260
    165  O        -84.5560  -23.5400   69.9850 O.2   177  ARG177     -0.2867
    166  CB       -86.4720  -21.1590   69.1380 C.3   177  ARG177      0.0307
    167  CG       -85.4710  -20.1400   69.3800 C.3   177  ARG177      0.0489
    168  CD       -84.7890  -20.2750   70.7230 C.3   177  ARG177      0.2205
    169  NE       -83.8470  -19.1750   70.7240 N.pl3 177  ARG177     -0.0865
    170  CZ       -84.2250  -17.9060   70.7450 C.cat 177  ARG177      0.5346
    171  NH1      -85.5170  -17.6190   70.8030 N.pl3 177  ARG177      0.1354
    172  NH2      -83.3270  -16.9300   70.6200 N.pl3 177  ARG177      0.1354
    173  N        -76.3270  -14.2630   70.2150 N.3   185  GLY185     -0.1210
    174  CA       -77.7220  -14.5620   69.9780 C.3   185  GLY185      0.1956
    175  C        -78.1640  -14.8010   68.5660 C.2   185  GLY185      0.2611
    176  O        -79.1200  -15.5390   68.3730 O.2   185  GLY185     -0.2717
    177  N        -77.5030  -14.2110   67.5740 N.am  186  PHE186     -0.1976
    178  CA       -77.9530  -14.4380   66.2080 C.3   186  PHE186      0.1639
    179  C        -77.8370  -15.8940   65.7390 C.2   186  PHE186      0.2290
    180  O        -78.5630  -16.3240   64.8450 O.2   186  PHE186     -0.2864
    181  CB       -77.2880  -13.4440   65.2280 C.3   186  PHE186      0.0560
    182  CG       -75.7780  -13.4450   65.2310 C.ar  186  PHE186     -0.0200
    183  CD1      -75.0640  -14.2770   64.3620 C.ar  186  PHE186     -0.0042
    184  CD2      -75.0660  -12.5400   66.0160 C.ar  186  PHE186     -0.0042
    185  CE1      -73.6570  -14.2000   64.2640 C.ar  186  PHE186     -0.0003
    186  CE2      -73.6520  -12.4530   65.9300 C.ar  186  PHE186     -0.0003
    187  CZ       -72.9530  -13.2830   65.0490 C.ar  186  PHE186     -0.0000
    188  N        -78.7540  -18.3810   67.4300 N.3   188  GLY188     -0.1210
    189  CA       -79.9140  -19.1140   67.9000 C.3   188  GLY188      0.1956
    190  C        -81.1340  -18.8850   67.0340 C.2   188  GLY188      0.2612
    191  O        -82.0600  -18.1960   67.4540 O.2   188  GLY188     -0.2717
    192  N        -81.1350  -19.4650   65.8370 N.am  189  ILE189     -0.1965
    193  CA       -82.2330  -19.3000   64.8950 C.3   189  ILE189      0.1727
    194  C        -83.6170  -19.6410   65.4720 C.2   189  ILE189      0.2616
    195  O        -83.7670  -20.5980   66.2350 O.2   189  ILE189     -0.2715
    196  CB       -81.9480  -20.1310   63.6280 C.3   189  ILE189      0.0290
    197  CG1      -83.0450  -19.9050   62.5750 C.3   189  ILE189      0.0022
    198  CG2      -81.7610  -21.5960   63.9950 C.3   189  ILE189      0.0023
    199  CD1      -82.5990  -20.2980   61.1330 C.3   189  ILE189      0.0001
    200  N        -84.6220  -18.8470   65.0920 N.am  190  LYS190     -0.1977
    201  CA       -86.0160  -18.9920   65.5640 C.3   190  LYS190      0.1596
    202  C        -86.9960  -19.6810   64.6050 C.2   190  LYS190      0.2287
    203  O        -86.7850  -19.6690   63.3970 O.2   190  LYS190     -0.2864
    204  CB       -86.5920  -17.6090   65.8920 C.3   190  LYS190      0.0298
    205  CG       -86.0000  -16.9530   67.1260 C.3   190  LYS190      0.0038
    206  CD       -86.6780  -15.6090   67.4360 C.3   190  LYS190      0.0206
    207  CE       -86.0460  -14.9670   68.6640 C.3   190  LYS190      0.1093
    208  NZ       -86.7000  -13.7130   69.0580 N.3   190  LYS190     -0.1314
    209  N        -76.9650  -13.3440   59.2100 N.3   206  TRP206     -0.1241
    210  CA       -76.2770  -12.1110   59.5870 C.3   206  TRP206      0.1605
    211  C        -74.8770  -11.9600   58.9940 C.2   206  TRP206      0.2264
    212  O        -74.3270  -10.8570   58.9480 O.2   206  TRP206     -0.2867
    213  CB       -76.2580  -11.9280   61.1030 C.3   206  TRP206      0.0550
    214  CG       -77.5050  -11.2390   61.5530 C.ar  206  TRP206      0.0003
    215  CD1      -78.5780  -11.8040   62.1800 C.ar  206  TRP206      0.0946
    216  CD2      -77.8460   -9.8620   61.3430 C.ar  206  TRP206      0.0152
    217  NE1      -79.5690  -10.8640   62.3720 N.ar  206  TRP206     -0.2442
    218  CE2      -79.1430   -9.6640   61.8700 C.ar  206  TRP206      0.0810
    219  CE3      -77.1850   -8.7790   60.7600 C.ar  206  TRP206      0.0012
    220  CZ2      -79.7880   -8.4230   61.8330 C.ar  206  TRP206      0.0191
    221  CZ3      -77.8360   -7.5390   60.7210 C.ar  206  TRP206      0.0001
    222  CH2      -79.1230   -7.3780   61.2560 C.ar  206  TRP206      0.0015
@<TRIPOS>BOND
     1   137   136    2
     2   136   135    1
     3   135   134    1
     4   135   138    1
     5   138   139    1
     6   142   143    1
     7   130   129    2
     8   144   143    1
     9   144   145    2
    10   143   146    1
    11   139   141    1
    12   139   140    1
    13   129   128    1
    14   212   211    2
    15   211   210    1
    16   127   128    1
    17   209   210    1
    18   146   147    1
    19   210   213    1
    20   128   131    1
    21    57    58    1
    22    57    56    1
    23   131   133    1
    24   131   132    1
    25    59    58   ar
    26    55    54    2
    27   147   149   ar
    28   147   148   ar
    29    43    42    2
    30    58    60   ar
    31    53    56    1
    32    53    54    1
    33    53    52    1
    34   221   219   ar
    35   221   222   ar
    36   219   216   ar
    37   149   151   ar
    38   148   150   ar
    39   213   214    1
    40   199   197    1
    41   222   220   ar
    42   216   214   ar
    43   216   218   ar
    44    42    52   am
    45    42    41    1
    46    47    49   ar
    47    47    45   ar
    48    44    45    1
    49    44    41    1
    50   214   215   ar
    51   151   152   ar
    52   220   218   ar
    53   218   217   ar
    54   150   152   ar
    55    49    50   ar
    56    45    46   ar
    57   215   217   ar
    58   152   153    1
    59    41    40    1
    60   197   196    1
    61    50    51    1
    62    50    48   ar
    63   203   202    2
    64    40    31   am
    65    46    48   ar
    66   196   198    1
    67   196   193    1
    68    38    36   ar
    69    38    39   ar
    70    32    31    2
    71   185   183   ar
    72   185   187   ar
    73    31    30    1
    74    36    34   ar
    75   183   182   ar
    76    39    37   ar
    77   202   201    1
    78   180   179    2
    79   193   194    1
    80   193   192    1
    81   187   186   ar
    82   200   194   am
    83   200   201    1
    84   181   182    1
    85   181   178    1
    86   182   184   ar
    87   194   195    2
    88    30    33    1
    89    30    29    1
    90   201   204    1
    91    34    33    1
    92    34    35   ar
    93   179   178    1
    94   192   190   am
    95   204   205    1
    96    37    35   ar
    97   186   184   ar
    98   178   177    1
    99    29    23   am
   100   190   191    2
   101   190   189    1
   102   205   206    1
   103    23    24    2
   104    23    22    1
   105   188   189    1
   106   206   207    1
   107    80    79    1
   108   177   175   am
   109    89    88   ar
   110    25    22    1
   111    25    26    1
   112    81    79    1
   113    22    21    1
   114    27    26    2
   115   176   175    2
   116   163   162    1
   117   163   164    1
   118   163   166    1
   119    79    76    1
   120    26    28   am
   121   175   174    1
   122   207   208    1
   123    88    87    1
   124    88    90   ar
   125   164   165    2
   126    87    86    1
   127   166   167    1
   128   167   168    1
   129    21    15   am
   130    16    15    2
   131    76    77    1
   132    76    75    1
   133   174   173    1
   134    15    14    1
   135   156   157    2
   136   156   155    1
   137    77    82   am
   138    77    78    2
   139    82    83    1
   140    75    71   am
   141    74    73    1
   142    86    83    1
   143    83    84    1
   144   172   170    1
   145   168   169    1
   146   169   170    2
   147   170   171    1
   148   154   155    1
   149    17    14    1
   150    17    18    1
   151   155   158    1
   152    14    13    1
   153    71    70    1
   154    71    72    2
   155    73    70    1
   156    84    85    2
   157    70    69    1
   158    18    19    2
   159    18    20   am
   160    13     3   am
   161    99   100   ar
   162    99    97   ar
   163   158   159    1
   164   102   100   ar
   165   102   104   ar
   166   100    98   ar
   167    97    96   ar
   168   159   160    2
   169   159   161   am
   170   104   103   ar
   171     3     4    2
   172     3     2    1
   173    67    68    1
   174    67    66    1
   175    98    96   ar
   176    98   101   ar
   177     2     1    1
   178     2     5    1
   179    96    95    1
   180    12    11    1
   181    66    65    1
   182    11     9   ar
   183    11    10   ar
   184   103   101   ar
   185    91    92    1
   186   126   125   ar
   187   126   124   ar
   188     9     7   ar
   189    10     8   ar
   190   125   123   ar
   191     7     6   ar
   192     8     6   ar
   193     6     5    1
   194    94    93    2
   195   124   122   ar
   196    95    92    1
   197   123   120   ar
   198   112   111    1
   199    92    93    1
   200    63    64    2
   201    63    62    1
   202   122   120   ar
   203   122   121   ar
   204    65    62    1
   205   120   118   ar
   206    62    61    1
   207   121   119   ar
   208   118   119   ar
   209   118   117    1
   210   117   114    1
   211   111   110    1
   212   110   109    1
   213   114   115    1
   214   114   113    1
   215   105   106    1
   216   115   116    2
   217   109   106    1
   218   106   107    1
   219   108   107    2
