@<TRIPOS>MOLECULE
tmp/1xdsB01.pdb
 230 227 0 0 0
SMALL
GASTEIGER

@<TRIPOS>ATOM
      1  N         50.3480   18.3200   81.9990 N.3    84  GLN84      -0.1245
      2  CA        49.7610   19.1120   83.0670 C.3    84  GLN84       0.1566
      3  C         50.0630   20.5950   82.9240 C.2    84  GLN84       0.2260
      4  O         49.3080   21.4170   83.4410 O.2    84  GLN84      -0.2867
      5  CB        50.1970   18.5760   84.4420 C.3    84  GLN84       0.0367
      6  CG        49.5040   17.2780   84.8240 C.3    84  GLN84       0.0905
      7  CD        47.9900   17.4020   84.7960 C.2    84  GLN84       0.2608
      8  OE1       47.4280   18.2920   85.4350 O.2    84  GLN84      -0.2717
      9  NE2       47.3290   16.5290   84.0360 N.am   84  GLN84      -0.0878
     10  N         47.2090   21.8260   80.7830 N.3    87  TRP87      -0.1241
     11  CA        45.9710   21.7260   81.5550 C.3    87  TRP87       0.1605
     12  C         45.8540   22.9240   82.4910 C.2    87  TRP87       0.2264
     13  O         44.7810   23.4860   82.6540 O.2    87  TRP87      -0.2867
     14  CB        45.9180   20.4150   82.3500 C.3    87  TRP87       0.0550
     15  CG        45.5180   19.2300   81.5230 C.ar   87  TRP87       0.0003
     16  CD1       46.3490   18.3980   80.8270 C.ar   87  TRP87       0.0946
     17  CD2       44.1920   18.7460   81.2990 C.ar   87  TRP87       0.0152
     18  NE1       45.6210   17.4280   80.1850 N.ar   87  TRP87      -0.2442
     19  CE2       44.2930   17.6150   80.4560 C.ar   87  TRP87       0.0810
     20  CE3       42.9220   19.1440   81.7310 C.ar   87  TRP87       0.0012
     21  CZ2       43.1770   16.8860   80.0350 C.ar   87  TRP87       0.0191
     22  CZ3       41.8140   18.4260   81.3080 C.ar   87  TRP87       0.0001
     23  CH2       41.9500   17.3070   80.4700 C.ar   87  TRP87       0.0015
     24  N         40.4990   24.7740   79.7830 N.3    94  VAL94      -0.1245
     25  CA        40.1480   24.0820   81.0240 C.3    94  VAL94       0.1561
     26  C         40.4820   24.9370   82.2560 C.2    94  VAL94       0.2260
     27  O         39.6270   25.1780   83.1080 O.2    94  VAL94      -0.2867
     28  CB        40.8300   22.7070   81.0980 C.3    94  VAL94       0.0252
     29  CG1       40.6490   22.0650   82.4750 C.3    94  VAL94       0.0019
     30  CG2       40.2570   21.7960   80.0200 C.3    94  VAL94       0.0019
     31  N         29.6110   27.6170   77.8790 N.3   123  PHE123     -0.1227
     32  CA        30.8660   27.0070   77.4580 C.3   123  PHE123      0.1736
     33  C         31.0150   26.7980   75.9510 C.2   123  PHE123      0.2595
     34  O         31.9650   27.2910   75.3560 O.2   123  PHE123     -0.2718
     35  CB        31.0880   25.6600   78.1750 C.3   123  PHE123      0.0547
     36  CG        32.4610   25.0910   77.9620 C.ar  123  PHE123     -0.0202
     37  CD1       33.5650   25.6650   78.5820 C.ar  123  PHE123     -0.0042
     38  CD2       32.6550   24.0150   77.1100 C.ar  123  PHE123     -0.0042
     39  CE1       34.8490   25.1530   78.3760 C.ar  123  PHE123     -0.0003
     40  CE2       33.9380   23.5010   76.8860 C.ar  123  PHE123     -0.0003
     41  CZ        35.0310   24.0640   77.5240 C.ar  123  PHE123     -0.0000
     42  N         30.0990   26.0570   75.3320 N.am  124  TRP124     -0.1976
     43  CA        30.2780   25.6890   73.9200 C.3   124  TRP124      0.1640
     44  C         30.2230   26.9140   73.0040 C.2   124  TRP124      0.2290
     45  O         31.0200   27.0330   72.0950 O.2   124  TRP124     -0.2864
     46  CB        29.2610   24.6290   73.4690 C.3   124  TRP124      0.0576
     47  CG        29.3960   23.3670   74.2140 C.ar  124  TRP124      0.0006
     48  CD1       28.4460   22.7760   75.0080 C.ar  124  TRP124      0.0946
     49  CD2       30.5510   22.5330   74.2850 C.ar  124  TRP124      0.0152
     50  NE1       28.9380   21.6120   75.5510 N.ar  124  TRP124     -0.2442
     51  CE2       30.2280   21.4370   75.1250 C.ar  124  TRP124      0.0810
     52  CE3       31.8260   22.5850   73.7130 C.ar  124  TRP124      0.0012
     53  CZ2       31.1330   20.4150   75.4080 C.ar  124  TRP124      0.0191
     54  CZ3       32.7260   21.5830   73.9980 C.ar  124  TRP124      0.0001
     55  CH2       32.3780   20.5070   74.8440 C.ar  124  TRP124      0.0015
     56  N         41.4310   23.6430   73.9510 N.3   137  PHE137     -0.1241
     57  CA        40.5660   22.5360   74.3880 C.3   137  PHE137      0.1605
     58  C         40.7820   21.3080   73.5000 C.2   137  PHE137      0.2264
     59  O         40.7950   20.1670   73.9660 O.2   137  PHE137     -0.2867
     60  CB        39.0810   22.9550   74.3510 C.3   137  PHE137      0.0534
     61  CG        38.1120   21.8570   74.7510 C.ar  137  PHE137     -0.0203
     62  CD1       37.9030   21.5410   76.0900 C.ar  137  PHE137     -0.0042
     63  CD2       37.3980   21.1530   73.7870 C.ar  137  PHE137     -0.0042
     64  CE1       37.0050   20.5330   76.4640 C.ar  137  PHE137     -0.0003
     65  CE2       36.5020   20.1430   74.1490 C.ar  137  PHE137     -0.0003
     66  CZ        36.3050   19.8340   75.4890 C.ar  137  PHE137     -0.0000
     67  N         43.3660    4.1300   71.3410 N.3   142  GLU142     -0.1231
     68  CA        42.8220    3.0660   70.5020 C.3   142  GLU142      0.1699
     69  C         41.4620    2.5700   71.0280 C.2   142  GLU142      0.2592
     70  O         40.7700    1.8160   70.3520 O.2   142  GLU142     -0.2718
     71  CB        43.8320    1.9080   70.3930 C.3   142  GLU142      0.0402
     72  CG        45.0490    2.2280   69.5260 C.3   142  GLU142      0.1161
     73  CD        44.9610    1.6670   68.1120 C.2   142  GLU142      0.3649
     74  OE1       44.1300    2.1510   67.3070 O.co2 142  GLU142     -0.2457
     75  OE2       45.7460    0.7440   67.7970 O.co2 142  GLU142     -0.2457
     76  N         41.0800    3.0530   72.2100 N.am  143  ALA143     -0.1966
     77  CA        39.9080    2.5880   72.9740 C.3   143  ALA143      0.1713
     78  C         38.7160    1.9900   72.2220 C.2   143  ALA143      0.2458
     79  O         38.4080    0.8340   72.4610 O.2   143  ALA143     -0.2730
     80  CB        39.4290    3.6900   73.9110 C.3   143  ALA143      0.0333
     81  N         38.0170    2.7430   71.3660 N.am  144  PRO144     -0.2727
     82  CA        36.8890    2.1670   70.6020 C.3   144  PRO144      0.1402
     83  C         37.2930    1.3870   69.3310 C.2   144  PRO144      0.2269
     84  O         36.8530    0.2530   69.1560 O.2   144  PRO144     -0.2865
     85  CB        36.0340    3.3880   70.2510 C.3   144  PRO144      0.0296
     86  CG        36.9840    4.5560   70.2780 C.3   144  PRO144      0.0237
     87  CD        38.2160    4.1720   71.0650 C.3   144  PRO144      0.0939
     88  N         30.3370    9.4890   72.4830 N.3   224  SER224     -0.1202
     89  CA        31.6090    9.5090   73.1920 C.3   224  SER224      0.2020
     90  C         31.8140   10.8100   73.9750 C.2   224  SER224      0.2618
     91  O         31.9800   11.8740   73.3970 O.2   224  SER224     -0.2717
     92  CB        32.7790    9.2900   72.2160 C.3   224  SER224      0.2103
     93  OG        34.0120    9.2090   72.9200 O.3   224  SER224     -0.2182
     94  N         31.8370   10.6830   75.2970 N.am  225  PHE225     -0.1975
     95  CA        31.9490   11.7970   76.2250 C.3   225  PHE225      0.1639
     96  C         31.0420   12.9490   75.8280 C.2   225  PHE225      0.2290
     97  O         31.4690   14.1000   75.7260 O.2   225  PHE225     -0.2864
     98  CB        33.4170   12.1940   76.4100 C.3   225  PHE225      0.0560
     99  CG        34.1770   11.2010   77.2370 C.ar  225  PHE225     -0.0200
    100  CD1       34.7070   10.0530   76.6510 C.ar  225  PHE225     -0.0042
    101  CD2       34.2970   11.3710   78.6030 C.ar  225  PHE225     -0.0042
    102  CE1       35.3800    9.0960   77.4190 C.ar  225  PHE225     -0.0003
    103  CE2       34.9640   10.4410   79.3810 C.ar  225  PHE225     -0.0003
    104  CZ        35.5080    9.2810   78.7880 C.ar  225  PHE225     -0.0000
    105  N         27.8250   13.1780   79.6450 N.3   228  LEU228     -0.1231
    106  CA        28.2510   13.8420   80.8710 C.3   228  LEU228      0.1693
    107  C         28.1380   15.3710   80.8020 C.2   228  LEU228      0.2592
    108  O         28.0660   16.0210   81.8470 O.2   228  LEU228     -0.2718
    109  CB        29.6780   13.4130   81.2670 C.3   228  LEU228      0.0284
    110  CG        30.8980   14.1340   80.6880 C.3   228  LEU228      0.0019
    111  CD1       32.1440   13.7940   81.4860 C.3   228  LEU228      0.0001
    112  CD2       31.0920   13.7670   79.2060 C.3   228  LEU228      0.0001
    113  N         28.1140   15.9340   79.5930 N.am  229  ASN229     -0.1974
    114  CA        27.9080   17.3850   79.3870 C.3   229  ASN229      0.1688
    115  C         26.5100   17.8870   79.7020 C.2   229  ASN229      0.2292
    116  O         26.2910   19.0960   79.7790 O.2   229  ASN229     -0.2864
    117  CB        28.1980   17.7930   77.9260 C.3   229  ASN229      0.1181
    118  CG        29.6690   17.6350   77.5270 C.2   229  ASN229      0.2629
    119  OD1       30.0090   17.7100   76.3400 O.2   229  ASN229     -0.2716
    120  ND2       30.5340   17.4280   78.5020 N.am  229  ASN229     -0.0877
    121  N         30.5960    5.8040   75.2120 N.3   255  LEU255     -0.1245
    122  CA        31.9050    5.9750   75.8440 C.3   255  LEU255      0.1561
    123  C         31.7780    7.0930   76.8710 C.2   255  LEU255      0.2260
    124  O         31.4570    8.2180   76.5060 O.2   255  LEU255     -0.2867
    125  CB        32.9610    6.4010   74.8320 C.3   255  LEU255      0.0270
    126  CG        33.4830    5.5060   73.7120 C.3   255  LEU255      0.0019
    127  CD1       34.7940    4.8770   74.1010 C.3   255  LEU255      0.0001
    128  CD2       32.4500    4.4720   73.2820 C.3   255  LEU255      0.0001
    129  N         38.7160   11.5060   90.9890 N.3   269  PHE269     -0.1241
    130  CA        38.5980   11.9790   89.6140 C.3   269  PHE269      0.1605
    131  C         37.1870   11.8750   89.0920 C.2   269  PHE269      0.2264
    132  O         36.8230   12.6230   88.2040 O.2   269  PHE269     -0.2867
    133  CB        39.5600   11.2360   88.6840 C.3   269  PHE269      0.0534
    134  CG        40.9930   11.5240   88.9700 C.ar  269  PHE269     -0.0203
    135  CD1       41.8120   10.5510   89.5040 C.ar  269  PHE269     -0.0042
    136  CD2       41.5100   12.7930   88.7510 C.ar  269  PHE269     -0.0042
    137  CE1       43.1440   10.8320   89.8150 C.ar  269  PHE269     -0.0003
    138  CE2       42.8390   13.0800   89.0420 C.ar  269  PHE269     -0.0003
    139  CZ        43.6560   12.0940   89.5750 C.ar  269  PHE269     -0.0000
    140  N         35.5990   14.9200   90.7310 N.3   272  LEU272     -0.1231
    141  CA        36.2330   16.1330   90.2310 C.3   272  LEU272      0.1693
    142  C         35.6310   16.4510   88.8770 C.2   272  LEU272      0.2591
    143  O         35.1770   17.5670   88.6270 O.2   272  LEU272     -0.2718
    144  CB        37.7480   15.9570   90.1190 C.3   272  LEU272      0.0284
    145  CG        38.5050   17.0800   89.4270 C.3   272  LEU272      0.0019
    146  CD1       38.3930   18.3340   90.2130 C.3   272  LEU272      0.0001
    147  CD2       39.9750   16.7160   89.2510 C.3   272  LEU272      0.0001
    148  N         35.6330   15.4580   87.9940 N.am  273  LEU273     -0.1980
    149  CA        35.0250   15.6200   86.6880 C.3   273  LEU273      0.1596
    150  C         33.5610   16.0010   86.8600 C.2   273  LEU273      0.2287
    151  O         33.0510   16.8560   86.1420 O.2   273  LEU273     -0.2864
    152  CB        35.1320   14.3300   85.8920 C.3   273  LEU273      0.0297
    153  CG        34.6570   14.3780   84.4370 C.3   273  LEU273      0.0022
    154  CD1       35.4180   15.4560   83.6810 C.3   273  LEU273      0.0001
    155  CD2       34.8310   13.0240   83.7620 C.3   273  LEU273      0.0001
    156  N         33.2350   19.6100   87.8190 N.3   276  ARG276     -0.1245
    157  CA        33.5810   20.3670   86.6180 C.3   276  ARG276      0.1563
    158  C         32.3840   20.4380   85.6590 C.2   276  ARG276      0.2260
    159  O         31.9980   21.5300   85.2420 O.2   276  ARG276     -0.2867
    160  CB        34.8040   19.7910   85.9090 C.3   276  ARG276      0.0307
    161  CG        36.1080   20.3680   86.3750 C.3   276  ARG276      0.0489
    162  CD        37.3460   19.7190   85.7600 C.3   276  ARG276      0.2205
    163  NE        38.5470   20.4580   86.1500 N.pl3 276  ARG276     -0.0865
    164  CZ        39.7940   20.0160   86.0140 C.cat 276  ARG276      0.5346
    165  NH1       40.0460   18.8360   85.4700 N.pl3 276  ARG276      0.1354
    166  NH2       40.8070   20.7730   86.4240 N.pl3 276  ARG276      0.1354
    167  N         30.9060   24.0200   84.8550 N.3   279  PHE279     -0.1241
    168  CA        31.1450   24.5160   83.5000 C.3   279  PHE279      0.1605
    169  C         29.8830   24.5920   82.6350 C.2   279  PHE279      0.2264
    170  O         29.7110   25.5560   81.8900 O.2   279  PHE279     -0.2867
    171  CB        32.1930   23.6690   82.7820 C.3   279  PHE279      0.0534
    172  CG        33.5400   23.6540   83.4420 C.ar  279  PHE279     -0.0203
    173  CD1       34.5090   22.7630   83.0000 C.ar  279  PHE279     -0.0042
    174  CD2       33.8480   24.4980   84.5160 C.ar  279  PHE279     -0.0042
    175  CE1       35.7560   22.7220   83.5880 C.ar  279  PHE279     -0.0003
    176  CE2       35.0860   24.4510   85.1060 C.ar  279  PHE279     -0.0003
    177  CZ        36.0430   23.5660   84.6430 C.ar  279  PHE279     -0.0000
    178  N         38.3820    0.7850   79.1910 N.3   306  SER306     -0.1202
    179  CA        39.6740    1.2300   78.6800 C.3   306  SER306      0.2020
    180  C         40.2500    2.2190   79.6980 C.2   306  SER306      0.2619
    181  O         39.7180    2.3490   80.8090 O.2   306  SER306     -0.2717
    182  CB        39.5350    1.8490   77.2830 C.3   306  SER306      0.2103
    183  OG        40.2880    1.1160   76.3280 O.3   306  SER306     -0.2182
    184  N         41.3420    2.8890   79.3420 N.am  307  GLY307     -0.1942
    185  CA        42.0130    3.7850   80.2650 C.3   307  GLY307      0.2014
    186  C         42.6970    4.9490   79.5760 C.2   307  GLY307      0.2639
    187  O         42.0850    5.6700   78.7800 O.2   307  GLY307     -0.2714
    188  N         43.9750    5.1360   79.8830 N.am  308  SER308     -0.1949
    189  CA        44.6950    6.3100   79.4120 C.3   308  SER308      0.1924
    190  C         46.1960    6.0870   79.5460 C.2   308  SER308      0.2314
    191  O         46.6740    5.6640   80.6050 O.2   308  SER308     -0.2863
    192  CB        44.2500    7.5470   80.2100 C.3   308  SER308      0.2116
    193  OG        44.7800    8.7470   79.6770 O.3   308  SER308     -0.2180
    194  N         47.1610    9.7170   81.9550 N.3   311  LEU311     -0.1231
    195  CA        46.5360   10.1080   83.2200 C.3   311  LEU311      0.1678
    196  C         45.8300    8.9050   83.8690 C.2   311  LEU311      0.2434
    197  O         45.5800    7.9030   83.2020 O.2   311  LEU311     -0.2733
    198  CB        45.5250   11.2450   82.9660 C.3   311  LEU311      0.0284
    199  CG        45.9650   12.7280   82.9930 C.3   311  LEU311      0.0019
    200  CD1       47.4750   12.9290   83.1360 C.3   311  LEU311      0.0001
    201  CD2       45.4320   13.5210   81.7630 C.3   311  LEU311      0.0001
    202  N         45.5030    9.0040   85.1610 N.am  312  PRO312     -0.2718
    203  CA        44.8320    7.9050   85.8640 C.3   312  PRO312      0.1535
    204  C         43.3140    7.9790   85.6690 C.2   312  PRO312      0.2598
    205  O         42.5750    8.4420   86.5400 O.2   312  PRO312     -0.2715
    206  CB        45.2470    8.1190   87.3290 C.3   312  PRO312      0.0310
    207  CG        45.5860    9.6000   87.4420 C.3   312  PRO312      0.0237
    208  CD        45.7270   10.1610   86.0510 C.3   312  PRO312      0.0939
    209  N         42.8610    7.5190   84.5050 N.am  313  PHE313     -0.1974
    210  CA        41.4690    7.6750   84.1270 C.3   313  PHE313      0.1639
    211  C         40.9110    6.4750   83.3560 C.2   313  PHE313      0.2290
    212  O         41.0610    6.3710   82.1350 O.2   313  PHE313     -0.2864
    213  CB        41.2820    8.9730   83.3360 C.3   313  PHE313      0.0560
    214  CG        39.8670    9.4520   83.3180 C.ar  313  PHE313     -0.0200
    215  CD1       39.3530   10.1750   84.3910 C.ar  313  PHE313     -0.0042
    216  CD2       39.0320    9.1560   82.2440 C.ar  313  PHE313     -0.0042
    217  CE1       38.0340   10.6100   84.3830 C.ar  313  PHE313     -0.0003
    218  CE2       37.7160    9.5880   82.2280 C.ar  313  PHE313     -0.0003
    219  CZ        37.2130   10.3160   83.2960 C.ar  313  PHE313     -0.0000
    220  N         37.7150    4.6360   81.8840 N.3   315  PHE315     -0.1241
    221  CA        36.3600    4.8840   81.4170 C.3   315  PHE315      0.1605
    222  C         35.7770    3.5890   80.8670 C.2   315  PHE315      0.2264
    223  O         36.4830    2.5960   80.7600 O.2   315  PHE315     -0.2867
    224  CB        36.3400    6.0010   80.3700 C.3   315  PHE315      0.0534
    225  CG        37.1330    5.6970   79.1310 C.ar  315  PHE315     -0.0203
    226  CD1       36.6410    4.8170   78.1630 C.ar  315  PHE315     -0.0042
    227  CD2       38.3640    6.3110   78.9180 C.ar  315  PHE315     -0.0042
    228  CE1       37.3720    4.5430   77.0100 C.ar  315  PHE315     -0.0003
    229  CE2       39.0980    6.0470   77.7700 C.ar  315  PHE315     -0.0003
    230  CZ        38.5990    5.1640   76.8130 C.ar  315  PHE315     -0.0000
@<TRIPOS>BOND
     1    74    73   ar
     2    75    73   ar
     3    73    72    1
     4    84    83    2
     5    83    82    1
     6    72    71    1
     7    85    86    1
     8    85    82    1
     9    86    87    1
    10    70    69    2
    11    71    68    1
    12    68    69    1
    13    68    67    1
    14    82    81    1
    15    69    76   am
    16    87    81    1
    17    81    78   am
    18    45    44    2
    19    76    77    1
    20    92    93    1
    21    92    89    1
    22    78    79    2
    23    78    77    1
    24    88    89    1
    25    77    80    1
    26    44    43    1
    27    89    90    1
    28   128   126    1
    29    91    90    2
    30    46    43    1
    31    46    47    1
    32    58    59    2
    33    58    57    1
    34   126   127    1
    35   126   125    1
    36    52    54   ar
    37    52    49   ar
    38    63    65   ar
    39    63    61   ar
    40    43    42    1
    41    56    57    1
    42    90    94   am
    43    54    55   ar
    44    65    66   ar
    45    47    49   ar
    46    47    48   ar
    47    49    51   ar
    48    60    57    1
    49    60    61    1
    50    61    62   ar
    51   125   122    1
    52    55    53   ar
    53    48    50   ar
    54    51    53   ar
    55    51    50   ar
    56   121   122    1
    57    94    95    1
    58    42    33   am
    59    34    33    2
    60    66    64   ar
    61    97    96    2
    62    96    95    1
    63   122   123    1
    64    33    32    1
    65    62    64   ar
    66    95    98    1
    67   183   182    1
    68   119   118    2
    69    98    99    1
    70   124   123    2
    71   100    99   ar
    72   100   102   ar
    73   230   228   ar
    74   230   229   ar
    75    40    38   ar
    76    40    41   ar
    77   228   226   ar
    78    38    36   ar
    79    99   101   ar
    80   182   179    1
    81   102   104   ar
    82    32    31    1
    83    32    35    1
    84    41    39   ar
    85   118   117    1
    86   118   120   am
    87   229   227   ar
    88   117   114    1
    89    36    35    1
    90    36    37   ar
    91   226   225   ar
    92    39    37   ar
    93   101   103   ar
    94   179   178    1
    95   179   180    1
    96   187   186    2
    97   104   103   ar
    98   227   225   ar
    99   225   224    1
   100   112   110    1
   101   184   180   am
   102   184   185    1
   103   114   113    1
   104   114   115    1
   105   189   190    1
   106   189   188    1
   107   189   192    1
   108   190   191    2
   109   186   188   am
   110   186   185    1
   111   113   107   am
   112   105   106    1
   113   193   192    1
   114   180   181    2
   115   115   116    2
   116    24    25    1
   117    30    28    1
   118    21    19   ar
   119    21    23   ar
   120    18    19   ar
   121    18    16   ar
   122   224   221    1
   123    19    17   ar
   124    23    22   ar
   125   110   109    1
   126   110   111    1
   127   223   222    2
   128    10    11    1
   129   107   106    1
   130   107   108    2
   131    16    15   ar
   132   222   221    1
   133   106   109    1
   134    25    28    1
   135    25    26    1
   136    28    29    1
   137    17    15   ar
   138    17    20   ar
   139    22    20   ar
   140   221   220    1
   141    15    14    1
   142    11    14    1
   143    11    12    1
   144   201   199    1
   145   170   169    2
   146   194   195    1
   147     1     2    1
   148   212   211    2
   149   218   216   ar
   150   218   219   ar
   151   216   214   ar
   152    26    27    2
   153    12    13    2
   154   169   168    1
   155   171   172    1
   156   171   168    1
   157     3     2    1
   158     3     4    2
   159   198   199    1
   160   198   195    1
   161   199   200    1
   162   173   172   ar
   163   173   175   ar
   164     2     5    1
   165   197   196    2
   166   195   196    1
   167   219   217   ar
   168   214   213    1
   169   214   215   ar
   170   213   210    1
   171   211   210    1
   172   172   174   ar
   173   168   167    1
   174   175   177   ar
   175   154   153    1
   176   155   153    1
   177   196   202   am
   178     9     7   am
   179   210   209    1
   180   217   215   ar
   181   153   152    1
   182     5     6    1
   183   209   204   am
   184   174   176   ar
   185   177   176   ar
   186     7     6    1
   187     7     8    2
   188   202   203    1
   189   202   208    1
   190   159   158    2
   191   165   164    1
   192   158   157    1
   193   204   203    1
   194   204   205    2
   195   162   163    1
   196   162   161    1
   197   203   206    1
   198   152   149    1
   199   160   161    1
   200   160   157    1
   201   164   163    2
   202   164   166    1
   203   208   207    1
   204   151   150    2
   205   157   156    1
   206   149   150    1
   207   149   148    1
   208   206   207    1
   209   148   142   am
   210   132   131    2
   211   143   142    2
   212   133   134    1
   213   133   130    1
   214   136   134   ar
   215   136   138   ar
   216   142   141    1
   217   134   135   ar
   218   138   139   ar
   219   131   130    1
   220   147   145    1
   221   145   144    1
   222   145   146    1
   223   135   137   ar
   224   139   137   ar
   225   130   129    1
   226   144   141    1
   227   141   140    1
