@<TRIPOS>MOLECULE
tmp/1xduA00.pdb
 195 193 0 0 0
SMALL
GASTEIGER

@<TRIPOS>ATOM
      1  N         16.7150   63.5280   38.7260 N.3   134  TRP134     -0.1227
      2  CA        15.2760   63.7860   38.7760 C.3   134  TRP134      0.1737
      3  C         14.8890   65.1680   38.2740 C.2   134  TRP134      0.2595
      4  O         13.8000   65.3450   37.7440 O.2   134  TRP134     -0.2718
      5  CB        14.7410   63.5710   40.1870 C.3   134  TRP134      0.0564
      6  CG        14.7050   62.1350   40.5700 C.ar  134  TRP134      0.0003
      7  CD1       15.4270   61.5280   41.5540 C.ar  134  TRP134      0.0946
      8  CD2       13.9070   61.1140   39.9700 C.ar  134  TRP134      0.0152
      9  NE1       15.1240   60.1890   41.6030 N.ar  134  TRP134     -0.2442
     10  CE2       14.1910   59.9100   40.6400 C.ar  134  TRP134      0.0810
     11  CE3       12.9720   61.0940   38.9300 C.ar  134  TRP134      0.0012
     12  CZ2       13.5740   58.7020   40.3040 C.ar  134  TRP134      0.0191
     13  CZ3       12.3620   59.8950   38.5970 C.ar  134  TRP134      0.0001
     14  CH2       12.6660   58.7180   39.2790 C.ar  134  TRP134      0.0015
     15  N         15.7680   66.1450   38.4410 N.am  135  GLU135     -0.1979
     16  CA        15.5200   67.4720   37.8920 C.3   135  GLU135      0.1602
     17  C         15.5750   67.4750   36.3600 C.2   135  GLU135      0.2287
     18  O         14.8070   68.1750   35.7020 O.2   135  GLU135     -0.2864
     19  CB        16.5080   68.4800   38.4670 C.3   135  GLU135      0.0415
     20  CG        16.1800   68.8870   39.8920 C.3   135  GLU135      0.1163
     21  CD        17.0230   70.0480   40.3770 C.2   135  GLU135      0.3649
     22  OE1       17.3360   70.9400   39.5560 O.co2 135  GLU135     -0.2457
     23  OE2       17.3730   70.0740   41.5780 O.co2 135  GLU135     -0.2457
     24  N         12.1000   56.2790   31.3810 N.3   147  PHE147     -0.1241
     25  CA        12.4320   55.7420   32.6900 C.3   147  PHE147      0.1605
     26  C         11.2350   54.9960   33.2820 C.2   147  PHE147      0.2264
     27  O         11.3900   53.9050   33.8210 O.2   147  PHE147     -0.2867
     28  CB        12.8740   56.8460   33.6470 C.3   147  PHE147      0.0534
     29  CG        13.4140   56.3240   34.9370 C.ar  147  PHE147     -0.0203
     30  CD1       14.6830   55.7630   34.9910 C.ar  147  PHE147     -0.0042
     31  CD2       12.6420   56.3530   36.0930 C.ar  147  PHE147     -0.0042
     32  CE1       15.1810   55.2590   36.1860 C.ar  147  PHE147     -0.0003
     33  CE2       13.1310   55.8510   37.2860 C.ar  147  PHE147     -0.0003
     34  CZ        14.3990   55.3050   37.3360 C.ar  147  PHE147     -0.0000
     35  N          6.4290   49.5780   38.5770 N.3   152  CYS152     -0.1235
     36  CA         5.5180   50.4430   39.3260 C.3   152  CYS152      0.1677
     37  C          4.6370   51.2830   38.3890 C.2   152  CYS152      0.2270
     38  O          3.6470   51.8780   38.8230 O.2   152  CYS152     -0.2867
     39  CB         6.2990   51.3440   40.2880 C.3   152  CYS152      0.0956
     40  SG         6.7160   50.5290   41.8490 S.3   152  CYS152     -0.0801
     41  N          0.0600   49.1880   42.6210 N.3   158  TYR158     -0.1241
     42  CA        -0.1160   49.7120   43.9710 C.3   158  TYR158      0.1605
     43  C         -1.2740   49.0740   44.7270 C.2   158  TYR158      0.2264
     44  O         -1.5510   49.4590   45.8600 O.2   158  TYR158     -0.2867
     45  CB        -0.2940   51.2360   43.9100 C.3   158  TYR158      0.0534
     46  CG         0.9730   51.9380   43.4800 C.ar  158  TYR158     -0.0201
     47  CD1        1.0970   52.4920   42.2100 C.ar  158  TYR158     -0.0009
     48  CD2        2.0650   52.0100   44.3380 C.ar  158  TYR158     -0.0009
     49  CE1        2.2760   53.1160   41.8160 C.ar  158  TYR158      0.0417
     50  CE2        3.2410   52.6290   43.9550 C.ar  158  TYR158      0.0417
     51  CZ         3.3430   53.1810   42.6980 C.ar  158  TYR158      0.1957
     52  OH         4.5170   53.7930   42.3310 O.3   158  TYR158     -0.2866
     53  N          1.6450   63.2510   50.1520 N.3   175  ASP175     -0.1239
     54  CA         2.3820   62.3100   49.3230 C.3   175  ASP175      0.1674
     55  C          3.6330   63.0230   48.8160 C.2   175  ASP175      0.2266
     56  O          3.5970   63.7260   47.8130 O.2   175  ASP175     -0.2867
     57  CB         1.4770   61.8240   48.1870 C.3   175  ASP175      0.1410
     58  CG         2.0850   60.6960   47.3700 C.2   175  ASP175      0.3668
     59  OD1        3.1680   60.1800   47.7180 O.co2 175  ASP175     -0.2456
     60  OD2        1.5270   60.2620   46.3410 O.co2 175  ASP175     -0.2456
     61  N          6.9850   63.7080   47.0990 N.3   177  GLY177     -0.1210
     62  CA         7.6300   63.1900   45.9060 C.3   177  GLY177      0.1956
     63  C          6.8110   62.0550   45.3340 C.2   177  GLY177      0.2612
     64  O          7.3480   61.0180   44.9560 O.2   177  GLY177     -0.2717
     65  N          5.5000   62.2670   45.2620 N.am  178  GLY178     -0.1942
     66  CA         4.5510   61.2200   44.9170 C.3   178  GLY178      0.2014
     67  C          4.5220   60.7860   43.4650 C.2   178  GLY178      0.2639
     68  O          3.6450   60.0210   43.0710 O.2   178  GLY178     -0.2714
     69  N          5.4650   61.2740   42.6660 N.am  179  GLY179     -0.1954
     70  CA         5.5780   60.8760   41.2750 C.3   179  GLY179      0.1869
     71  C          4.3530   61.2880   40.4980 C.2   179  GLY179      0.2309
     72  O          3.9350   62.4440   40.5750 O.2   179  GLY179     -0.2863
     73  N          0.2640   57.1150   41.5620 N.3   182  GLY182     -0.1225
     74  CA        -0.2120   55.7460   41.7190 C.3   182  GLY182      0.1811
     75  C         -0.7410   55.3740   43.0970 C.2   182  GLY182      0.2280
     76  O         -1.9100   55.0080   43.2420 O.2   182  GLY182     -0.2866
     77  N          3.2450   66.3500   46.3230 N.3   198  VAL198     -0.1231
     78  CA         4.3240   67.3120   46.1250 C.3   198  VAL198      0.1692
     79  C          5.3400   66.7600   45.1390 C.2   198  VAL198      0.2592
     80  O          5.9200   65.7050   45.3640 O.2   198  VAL198     -0.2718
     81  CB         5.0070   67.6590   47.4580 C.3   198  VAL198      0.0266
     82  CG1        6.2990   68.4410   47.2340 C.3   198  VAL198      0.0020
     83  CG2        4.0520   68.4540   48.3300 C.3   198  VAL198      0.0020
     84  N          5.5530   67.4740   44.0430 N.am  199  GLU199     -0.1966
     85  CA         6.4450   66.9930   42.9990 C.3   199  GLU199      0.1733
     86  C          7.0950   68.1230   42.2050 C.2   199  GLU199      0.2616
     87  O          6.7160   69.2810   42.3140 O.2   199  GLU199     -0.2715
     88  CB         5.6700   66.0590   42.0600 C.3   199  GLU199      0.0429
     89  CG         5.9120   64.5780   42.3180 C.3   199  GLU199      0.1163
     90  CD         7.3220   64.1330   41.9660 C.2   199  GLU199      0.3649
     91  OE1        8.0440   64.8930   41.2920 O.co2 199  GLU199     -0.2457
     92  OE2        7.7160   63.0170   42.3640 O.co2 199  GLU199     -0.2457
     93  N          8.0910   67.7660   41.4090 N.am  200  LEU200     -0.1977
     94  CA         8.6900   68.6900   40.4630 C.3   200  LEU200      0.1596
     95  C          7.7050   68.8470   39.3030 C.2   200  LEU200      0.2287
     96  O          6.7860   68.0490   39.1610 O.2   200  LEU200     -0.2864
     97  CB        10.0570   68.1630   40.0020 C.3   200  LEU200      0.0297
     98  CG        10.9890   67.7030   41.1350 C.3   200  LEU200      0.0022
     99  CD1       12.2900   67.1560   40.5810 C.3   200  LEU200      0.0001
    100  CD2       11.2500   68.8330   42.1320 C.3   200  LEU200      0.0001
    101  N          6.4270   65.3770   36.8660 N.3   203  PRO203     -0.2116
    102  CA         5.4550   64.4490   37.4580 C.3   203  PRO203      0.1372
    103  C          4.2200   65.1440   38.0240 C.2   203  PRO203      0.2244
    104  O          3.1650   64.5170   38.1200 O.2   203  PRO203     -0.2868
    105  CB         6.2460   63.7810   38.5890 C.3   203  PRO203      0.0268
    106  CG         7.6610   63.9820   38.2330 C.3   203  PRO203      0.0207
    107  CD         7.7180   65.3280   37.5750 C.3   203  PRO203      0.0892
    108  N          6.8440   71.6660   44.1220 N.3   225  GLY225     -0.1210
    109  CA         7.6820   71.9750   45.2650 C.3   225  GLY225      0.1956
    110  C          8.9230   71.1160   45.4370 C.2   225  GLY225      0.2612
    111  O          9.0200   70.0030   44.9080 O.2   225  GLY225     -0.2717
    112  N          9.8710   71.6540   46.2010 N.am  226  ASP226     -0.1959
    113  CA        11.1180   70.9790   46.5440 C.3   226  ASP226      0.1840
    114  C         10.9470   70.3670   47.9330 C.2   226  ASP226      0.2622
    115  O         10.6880   71.0940   48.8860 O.2   226  ASP226     -0.2715
    116  CB        12.2540   72.0170   46.5300 C.3   226  ASP226      0.1450
    117  CG        13.6350   71.4140   46.7440 C.2   226  ASP226      0.3671
    118  OD1       13.7860   70.1800   46.6980 O.co2 226  ASP226     -0.2456
    119  OD2       14.6440   72.1180   46.9620 O.co2 226  ASP226     -0.2456
    120  N         11.0710   69.0410   48.0520 N.am  227  PHE227     -0.1960
    121  CA        10.8930   68.3700   49.3540 C.3   227  PHE227      0.1771
    122  C         12.0980   68.5150   50.2910 C.2   227  PHE227      0.2619
    123  O         12.0940   67.9930   51.4070 O.2   227  PHE227     -0.2715
    124  CB        10.4380   66.8910   49.2250 C.3   227  PHE227      0.0574
    125  CG        11.3690   65.9800   48.4320 C.ar  227  PHE227     -0.0200
    126  CD1       12.7520   66.0730   48.5160 C.ar  227  PHE227     -0.0042
    127  CD2       10.8300   64.9780   47.6310 C.ar  227  PHE227     -0.0042
    128  CE1       13.5690   65.2100   47.7950 C.ar  227  PHE227     -0.0003
    129  CE2       11.6480   64.1130   46.9130 C.ar  227  PHE227     -0.0003
    130  CZ        13.0150   64.2330   46.9950 C.ar  227  PHE227     -0.0000
    131  N         13.1270   69.2150   49.8230 N.am  228  PHE228     -0.1974
    132  CA        14.2080   69.6630   50.6880 C.3   228  PHE228      0.1639
    133  C         13.8140   70.9750   51.3810 C.2   228  PHE228      0.2290
    134  O         14.2530   71.2350   52.4990 O.2   228  PHE228     -0.2864
    135  CB        15.5040   69.8080   49.8900 C.3   228  PHE228      0.0560
    136  CG        16.0360   68.4990   49.3690 C.ar  228  PHE228     -0.0200
    137  CD1       16.0570   68.2290   48.0050 C.ar  228  PHE228     -0.0042
    138  CD2       16.5030   67.5310   50.2480 C.ar  228  PHE228     -0.0042
    139  CE1       16.5420   67.0190   47.5300 C.ar  228  PHE228     -0.0003
    140  CE2       16.9880   66.3170   49.7790 C.ar  228  PHE228     -0.0003
    141  CZ        17.0100   66.0630   48.4200 C.ar  228  PHE228     -0.0000
    142  N          6.6990   57.0760   49.1170 N.3   241  SER241     -0.1202
    143  CA         6.6140   55.8700   48.3010 C.3   241  SER241      0.2020
    144  C          7.7480   55.8380   47.2790 C.2   241  SER241      0.2619
    145  O          7.7440   56.6150   46.3340 O.2   241  SER241     -0.2717
    146  CB         5.2590   55.8290   47.5870 C.3   241  SER241      0.2103
    147  OG         5.2240   54.8380   46.5710 O.3   241  SER241     -0.2182
    148  N          8.7080   54.9350   47.4740 N.am  242  PHE242     -0.1961
    149  CA         9.8860   54.8020   46.6060 C.3   242  PHE242      0.1771
    150  C         10.6310   56.1190   46.4060 C.2   242  PHE242      0.2619
    151  O         10.9160   56.5210   45.2810 O.2   242  PHE242     -0.2715
    152  CB         9.4920   54.1740   45.2630 C.3   242  PHE242      0.0574
    153  CG         8.9020   52.8100   45.4060 C.ar  242  PHE242     -0.0200
    154  CD1        7.5400   52.6090   45.2720 C.ar  242  PHE242     -0.0042
    155  CD2        9.7070   51.7360   45.7280 C.ar  242  PHE242     -0.0042
    156  CE1        6.9890   51.3520   45.4340 C.ar  242  PHE242     -0.0003
    157  CE2        9.1670   50.4740   45.8940 C.ar  242  PHE242     -0.0003
    158  CZ         7.8030   50.2810   45.7460 C.ar  242  PHE242     -0.0000
    159  N         10.9410   56.7720   47.5240 N.am  243  VAL243     -0.1977
    160  CA        11.6600   58.0430   47.5360 C.3   243  VAL243      0.1596
    161  C         12.9820   57.9130   48.2740 C.2   243  VAL243      0.2287
    162  O         14.0210   58.2850   47.7520 O.2   243  VAL243     -0.2864
    163  CB        10.8320   59.1540   48.2130 C.3   243  VAL243      0.0276
    164  CG1       11.6440   60.4380   48.3500 C.3   243  VAL243      0.0022
    165  CG2        9.5610   59.4130   47.4300 C.3   243  VAL243      0.0022
    166  N         14.9950   55.5140   48.8420 N.3   245  LEU245     -0.1231
    167  CA        16.0190   54.7800   48.0810 C.3   245  LEU245      0.1693
    168  C         16.7860   55.6300   47.0490 C.2   245  LEU245      0.2592
    169  O         17.8950   55.2800   46.6630 O.2   245  LEU245     -0.2718
    170  CB        15.4160   53.5490   47.3910 C.3   245  LEU245      0.0284
    171  CG        14.7070   53.7200   46.0400 C.3   245  LEU245      0.0019
    172  CD1       14.2540   52.3640   45.4890 C.3   245  LEU245      0.0001
    173  CD2       13.5150   54.6730   46.1520 C.3   245  LEU245      0.0001
    174  N         16.2010   56.7390   46.6050 N.am  246  ASN246     -0.1960
    175  CA        16.8460   57.6110   45.6260 C.3   246  ASN246      0.1819
    176  C         17.9750   58.4860   46.1970 C.2   246  ASN246      0.2621
    177  O         18.6100   59.2340   45.4530 O.2   246  ASN246     -0.2715
    178  CB        15.7990   58.5070   44.9430 C.3   246  ASN246      0.1195
    179  CG        14.7590   57.7170   44.1370 C.2   246  ASN246      0.2630
    180  OD1       13.6440   58.1910   43.9270 O.2   246  ASN246     -0.2716
    181  ND2       15.1260   56.5240   43.6760 N.am  246  ASN246     -0.0877
    182  N         18.2460   58.3780   47.5000 N.am  247  TRP247     -0.1974
    183  CA        19.0870   59.3560   48.1990 C.3   247  TRP247      0.1640
    184  C         20.0690   58.7540   49.1930 C.2   247  TRP247      0.2290
    185  O         19.8180   57.7040   49.7730 O.2   247  TRP247     -0.2864
    186  CB        18.2020   60.3540   48.9390 C.3   247  TRP247      0.0576
    187  CG        17.2630   61.0620   48.0400 C.ar  247  TRP247      0.0006
    188  CD1       15.9440   60.7830   47.8600 C.ar  247  TRP247      0.0946
    189  CD2       17.5650   62.1560   47.1670 C.ar  247  TRP247      0.0152
    190  NE1       15.3970   61.6410   46.9370 N.ar  247  TRP247     -0.2442
    191  CE2       16.3710   62.4990   46.4950 C.ar  247  TRP247      0.0810
    192  CE3       18.7260   62.8930   46.8880 C.ar  247  TRP247      0.0012
    193  CZ2       16.3020   63.5430   45.5630 C.ar  247  TRP247      0.0191
    194  CZ3       18.6570   63.9340   45.9620 C.ar  247  TRP247      0.0001
    195  CH2       17.4520   64.2470   45.3100 C.ar  247  TRP247      0.0015
@<TRIPOS>BOND
     1    24    25    1
     2    25    26    1
     3    25    28    1
     4    26    27    2
     5    28    29    1
     6    29    30   ar
     7    29    31   ar
     8    30    32   ar
     9    18    17    2
    10    31    33   ar
    11    32    34   ar
    12    17    16    1
    13   101   102    1
    14   101   107    1
    15    33    34   ar
    16   102   103    1
    17   102   105    1
    18   107   106    1
    19     4     3    2
    20    16    15    1
    21    16    19    1
    22   103   104    2
    23   106   105    1
    24     3    15   am
    25     3     2    1
    26    37    38    2
    27    37    36    1
    28    19    20    1
    29    35    36    1
    30    13    11   ar
    31    13    14   ar
    32     1     2    1
    33     2     5    1
    34    11     8   ar
    35    96    95    2
    36    14    12   ar
    37    95    94    1
    38    36    39    1
    39    22    21   ar
    40    20    21    1
    41     8     6   ar
    42     8    10   ar
    43    97    94    1
    44    97    98    1
    45     5     6    1
    46    39    40    1
    47    12    10   ar
    48    21    23   ar
    49    94    93    1
    50    71    72    2
    51    71    70    1
    52     6     7   ar
    53    99    98    1
    54    10     9   ar
    55    98   100    1
    56    70    69    1
    57    91    90   ar
    58    93    86   am
    59     7     9   ar
    60    73    74    1
    61    74    75    1
    62    49    47   ar
    63    49    51   ar
    64    90    89    1
    65    90    92   ar
    66    88    89    1
    67    88    85    1
    68    86    87    2
    69    86    85    1
    70    47    46   ar
    71    52    51    1
    72    41    42    1
    73    69    67   am
    74    51    50   ar
    75    85    84    1
    76    68    67    2
    77    75    76    2
    78    67    66    1
    79    46    45    1
    80    46    48   ar
    81   181   179   am
    82    45    42    1
    83   180   179    2
    84    50    48   ar
    85    42    43    1
    86    84    79   am
    87   108   109    1
    88   179   178    1
    89    43    44    2
    90   111   110    2
    91    66    65    1
    92   178   175    1
    93    64    63    2
    94    79    80    2
    95    79    78    1
    96    65    63   am
    97   152   153    1
    98   152   149    1
    99   109   110    1
   100   154   153   ar
   101   154   156   ar
   102   151   150    2
   103   195   193   ar
   104   195   194   ar
   105    63    62    1
   106   153   155   ar
   107   156   158   ar
   108   110   112   am
   109   177   176    2
   110   172   171    1
   111   193   191   ar
   112   175   176    1
   113   175   174    1
   114   155   157   ar
   115   158   157   ar
   116    62    61    1
   117   194   192   ar
   118   171   173    1
   119   171   170    1
   120    78    77    1
   121    78    81    1
   122   176   182   am
   123   112   113    1
   124   145   144    2
   125    60    58   ar
   126   150   149    1
   127   150   159   am
   128   191   190   ar
   129   191   189   ar
   130   116   113    1
   131   116   117    1
   132   113   114    1
   133   147   146    1
   134   174   168   am
   135   149   148    1
   136   169   168    2
   137   118   117   ar
   138   117   119   ar
   139   192   189   ar
   140   129   130   ar
   141   129   127   ar
   142   190   188   ar
   143   130   128   ar
   144   168   167    1
   145   189   187   ar
   146    82    81    1
   147   144   148   am
   148   144   143    1
   149    58    59   ar
   150    58    57    1
   151   170   167    1
   152   165   163    1
   153    81    83    1
   154   182   183    1
   155   159   160    1
   156   139   137   ar
   157   139   141   ar
   158   160   163    1
   159   160   161    1
   160   146   143    1
   161   127   125   ar
   162   162   161    2
   163   128   126   ar
   164    56    55    2
   165   188   187   ar
   166   114   120   am
   167   114   115    2
   168   137   136   ar
   169   187   186    1
   170   120   121    1
   171   167   166    1
   172    57    54    1
   173   183   186    1
   174   183   184    1
   175   163   164    1
   176   143   142    1
   177   141   140   ar
   178   125   126   ar
   179   125   124    1
   180    55    54    1
   181   184   185    2
   182   124   121    1
   183    54    53    1
   184   121   122    1
   185   136   135    1
   186   136   138   ar
   187   140   138   ar
   188   131   122   am
   189   131   132    1
   190   135   132    1
   191   122   123    2
   192   132   133    1
   193   133   134    2
