@<TRIPOS>MOLECULE
tmp/1xe7B00.pdb
 95 90 0 0 0
SMALL
GASTEIGER

@<TRIPOS>ATOM
      1  N        172.9540  121.3040   20.1910 N.3    33  HIS33      -0.1241
      2  CA       172.3260  121.6030   18.9090 C.3    33  HIS33       0.1621
      3  C        172.0100  120.3140   18.1570 C.2    33  HIS33       0.2264
      4  O        172.6390  119.2770   18.3880 O.2    33  HIS33      -0.2867
      5  CB       173.2650  122.4780   18.0710 C.3    33  HIS33       0.0745
      6  CG       172.6130  123.1100   16.8810 C.ar   33  HIS33       0.0817
      7  ND1      171.9630  122.3800   15.9090 N.ar   33  HIS33      -0.2268
      8  CD2      172.5290  124.4060   16.4950 C.ar   33  HIS33       0.1154
      9  CE1      171.5080  123.1980   14.9760 C.ar   33  HIS33       0.1986
     10  NE2      171.8390  124.4330   15.3070 N.ar   33  HIS33      -0.2212
     11  N        174.9480  125.4600   21.7590 N.3    39  PHE39      -0.1241
     12  CA       174.8220  126.8300   21.2890 C.3    39  PHE39       0.1605
     13  C        173.7960  127.6390   22.0630 C.2    39  PHE39       0.2264
     14  O        173.0850  127.1320   22.9320 O.2    39  PHE39      -0.2867
     15  CB       174.4230  126.8450   19.8110 C.3    39  PHE39       0.0534
     16  CG       172.9350  126.7940   19.5870 C.ar   39  PHE39      -0.0203
     17  CD1      172.2450  127.9260   19.1630 C.ar   39  PHE39      -0.0042
     18  CD2      172.2170  125.6320   19.8490 C.ar   39  PHE39      -0.0042
     19  CE1      170.8570  127.9010   19.0060 C.ar   39  PHE39      -0.0003
     20  CE2      170.8250  125.5980   19.6940 C.ar   39  PHE39      -0.0003
     21  CZ       170.1490  126.7350   19.2730 C.ar   39  PHE39      -0.0000
     22  N        171.5870  131.5370   21.1120 N.3    41  GLU41      -0.1245
     23  CA       171.4480  132.7790   20.3700 C.3    41  GLU41       0.1567
     24  C        171.4690  133.8420   21.4520 C.2    41  GLU41       0.2260
     25  O        170.6140  133.8470   22.3360 O.2    41  GLU41      -0.2867
     26  CB       170.1180  132.8170   19.6140 C.3    41  GLU41       0.0388
     27  CG       169.8610  134.1390   18.8950 C.3    41  GLU41       0.1160
     28  CD       168.6330  134.0930   18.0060 C.2    41  GLU41       0.3649
     29  OE1      168.6680  133.3660   16.9940 O.co2  41  GLU41      -0.2457
     30  OE2      167.6360  134.7780   18.3240 O.co2  41  GLU41      -0.2457
     31  N        169.6200  139.0910   18.6010 N.3    44  ARG44      -0.1245
     32  CA       168.8320  139.1050   17.3700 C.3    44  ARG44       0.1563
     33  C        168.4560  140.5690   17.2320 C.2    44  ARG44       0.2260
     34  O        167.6720  141.0890   18.0230 O.2    44  ARG44      -0.2867
     35  CB       167.5750  138.2330   17.5060 C.3    44  ARG44       0.0307
     36  CG       166.6320  138.2790   16.2890 C.3    44  ARG44       0.0489
     37  CD       165.5790  137.1750   16.3720 C.3    44  ARG44       0.2205
     38  NE       166.1400  135.8420   16.1400 N.pl3  44  ARG44      -0.0865
     39  CZ       166.2400  135.2670   14.9420 C.cat  44  ARG44       0.5346
     40  NH1      165.8130  135.9010   13.8560 N.pl3  44  ARG44       0.1354
     41  NH2      166.7700  134.0560   14.8220 N.pl3  44  ARG44       0.1354
     42  N        171.9630  138.0900   13.6170 N.3    66  THR66      -0.1218
     43  CA       171.8070  137.2000   14.7610 C.3    66  THR66       0.1862
     44  C        173.2160  136.8190   15.1980 C.2    66  THR66       0.2287
     45  O        174.1420  136.7690   14.3870 O.2    66  THR66      -0.2866
     46  CB       170.9970  135.9030   14.4670 C.3    66  THR66       0.1770
     47  OG1      171.4900  135.2630   13.2850 O.3    66  THR66      -0.2211
     48  CG2      169.5050  136.2230   14.3170 C.3    66  THR66       0.0375
     49  N        175.3750  134.0460   17.8990 N.3    68  ILE68      -0.1245
     50  CA       175.3160  132.8760   18.7660 C.3    68  ILE68       0.1561
     51  C        176.7070  132.5190   19.2650 C.2    68  ILE68       0.2260
     52  O        177.7110  132.9190   18.6800 O.2    68  ILE68      -0.2867
     53  CB       174.7940  131.5870   18.0550 C.3    68  ILE68       0.0252
     54  CG1      175.8130  131.1160   17.0080 C.3    68  ILE68       0.0019
     55  CG2      173.4360  131.8270   17.4320 C.3    68  ILE68       0.0019
     56  CD1      175.5590  129.7010   16.4970 C.3    68  ILE68       0.0001
     57  N        175.2010  135.9930   11.6630 N.3   153  VAL153     -0.1245
     58  CA       174.5210  135.7820   10.3860 C.3   153  VAL153      0.1561
     59  C        173.8280  137.0830    9.9780 C.2   153  VAL153      0.2260
     60  O        173.1280  137.7030   10.7850 O.2   153  VAL153     -0.2867
     61  CB       173.4520  134.6690   10.4930 C.3   153  VAL153      0.0252
     62  CG1      172.9610  134.2900    9.1040 C.3   153  VAL153      0.0019
     63  CG2      174.0200  133.4500   11.2140 C.3   153  VAL153      0.0019
     64  N        169.6140  134.8840   11.1700 N.3   157  PHE157     -0.1241
     65  CA       169.2240  133.4930   10.9820 C.3   157  PHE157      0.1605
     66  C        167.7170  133.2760   10.9780 C.2   157  PHE157      0.2264
     67  O        166.9930  133.8240   11.8150 O.2   157  PHE157     -0.2867
     68  CB       169.8190  132.6160   12.0860 C.3   157  PHE157      0.0534
     69  CG       169.4110  131.1680   11.9940 C.ar  157  PHE157     -0.0203
     70  CD1      170.1490  130.2720   11.2310 C.ar  157  PHE157     -0.0042
     71  CD2      168.2730  130.7080   12.6470 C.ar  157  PHE157     -0.0042
     72  CE1      169.7630  128.9390   11.1180 C.ar  157  PHE157     -0.0003
     73  CE2      167.8750  129.3770   12.5410 C.ar  157  PHE157     -0.0003
     74  CZ       168.6210  128.4900   11.7750 C.ar  157  PHE157     -0.0000
     75  N        164.9870  129.8110    9.9660 N.3   159  PHE159     -0.1241
     76  CA       164.9100  128.4190    9.5250 C.3   159  PHE159      0.1605
     77  C        164.6190  128.2620    8.0340 C.2   159  PHE159      0.2264
     78  O        165.0340  127.2780    7.4270 O.2   159  PHE159     -0.2867
     79  CB       163.8590  127.6530   10.3300 C.3   159  PHE159      0.0534
     80  CG       164.2480  127.4180   11.7590 C.ar  159  PHE159     -0.0203
     81  CD1      163.5190  127.9930   12.7940 C.ar  159  PHE159     -0.0042
     82  CD2      165.3550  126.6350   12.0710 C.ar  159  PHE159     -0.0042
     83  CE1      163.8880  127.7910   14.1250 C.ar  159  PHE159     -0.0003
     84  CE2      165.7310  126.4300   13.3990 C.ar  159  PHE159     -0.0003
     85  CZ       164.9930  127.0110   14.4240 C.ar  159  PHE159     -0.0000
     86  N        167.8290  127.8580    6.1850 N.3   162  HIS162     -0.1241
     87  CA       168.7270  126.8050    6.6590 C.3   162  HIS162      0.1621
     88  C        168.4770  125.4460    6.0130 C.2   162  HIS162      0.2264
     89  O        167.3350  125.0660    5.7710 O.2   162  HIS162     -0.2867
     90  CB       168.5780  126.6840    8.1790 C.3   162  HIS162      0.0745
     91  CG       169.5780  125.7780    8.8270 C.ar  162  HIS162      0.0817
     92  ND1      170.9170  126.0900    8.9200 N.ar  162  HIS162     -0.2268
     93  CD2      169.4260  124.5870    9.4550 C.ar  162  HIS162      0.1154
     94  CE1      171.5470  125.1340    9.5800 C.ar  162  HIS162      0.1986
     95  NE2      170.6640  124.2100    9.9160 N.ar  162  HIS162     -0.2212
@<TRIPOS>BOND
     1    89    88    2
     2    88    87    1
     3    86    87    1
     4    87    90    1
     5    78    77    2
     6    77    76    1
     7    90    91    1
     8    91    92   ar
     9    91    93   ar
    10    92    94   ar
    11    62    61    1
    12    93    95   ar
    13    76    75    1
    14    76    79    1
    15    94    95   ar
    16    59    58    1
    17    59    60    2
    18    79    80    1
    19    58    61    1
    20    58    57    1
    21    61    63    1
    22    66    65    1
    23    66    67    2
    24    65    64    1
    25    65    68    1
    26    72    70   ar
    27    72    74   ar
    28    70    69   ar
    29    80    82   ar
    30    80    81   ar
    31    74    73   ar
    32    69    68    1
    33    69    71   ar
    34    82    84   ar
    35    73    71   ar
    36    81    83   ar
    37    47    46    1
    38    84    85   ar
    39    42    43    1
    40    40    39    1
    41    83    85   ar
    42    48    46    1
    43    45    44    2
    44    46    43    1
    45    43    44    1
    46    41    39    1
    47    39    38    2
    48     9    10   ar
    49     9     7   ar
    50    10     8   ar
    51     7     6   ar
    52    38    37    1
    53    36    37    1
    54    36    35    1
    55     8     6   ar
    56    56    54    1
    57     6     5    1
    58    29    28   ar
    59    54    53    1
    60    33    32    1
    61    33    34    2
    62    32    35    1
    63    32    31    1
    64    55    53    1
    65    49    50    1
    66    28    30   ar
    67    28    27    1
    68    53    50    1
    69     5     2    1
    70     3     4    2
    71     3     2    1
    72    52    51    2
    73    50    51    1
    74    27    26    1
    75     2     1    1
    76    19    17   ar
    77    19    21   ar
    78    17    16   ar
    79    21    20   ar
    80    16    15    1
    81    16    18   ar
    82    26    23    1
    83    20    18   ar
    84    15    12    1
    85    23    22    1
    86    23    24    1
    87    12    11    1
    88    12    13    1
    89    24    25    2
    90    13    14    2
