@<TRIPOS>MOLECULE
tmp/1xe8B00.pdb
 92 89 0 0 0
SMALL
GASTEIGER

@<TRIPOS>ATOM
      1  N        165.5020  141.7540    2.5160 N.3    53  VAL53      -0.1231
      2  CA       166.4290  141.0490    1.6570 C.3    53  VAL53       0.1692
      3  C        165.6690  140.2300    0.6430 C.2    53  VAL53       0.2592
      4  O        164.5610  139.7700    0.9040 O.2    53  VAL53      -0.2718
      5  CB       167.3480  140.1330    2.4820 C.3    53  VAL53       0.0266
      6  CG1      168.1610  139.2590    1.5720 C.3    53  VAL53       0.0020
      7  CG2      168.2700  140.9720    3.3380 C.3    53  VAL53       0.0020
      8  N        166.2690  140.0610   -0.5260 N.am   54  GLU54      -0.1966
      9  CA       165.6500  139.2960   -1.5910 C.3    54  GLU54       0.1733
     10  C        166.0610  137.8380   -1.4730 C.2    54  GLU54       0.2616
     11  O        167.2460  137.5150   -1.4470 O.2    54  GLU54      -0.2715
     12  CB       166.0830  139.8520   -2.9400 C.3    54  GLU54       0.0429
     13  CG       165.4600  139.1540   -4.1230 C.3    54  GLU54       0.1163
     14  CD       166.0940  139.5840   -5.4290 C.2    54  GLU54       0.3649
     15  OE1      165.9730  140.7800   -5.7890 O.co2  54  GLU54      -0.2457
     16  OE2      166.7200  138.7210   -6.0860 O.co2  54  GLU54      -0.2457
     17  N        165.0730  136.9590   -1.4020 N.am   55  LYS55      -0.1964
     18  CA       165.3260  135.5320   -1.2730 C.3    55  LYS55       0.1713
     19  C        164.5940  134.7420   -2.3590 C.2    55  LYS55       0.2458
     20  O        163.4270  135.0150   -2.6670 O.2    55  LYS55      -0.2730
     21  CB       164.8810  135.0600    0.1160 C.3    55  LYS55       0.0311
     22  CG       164.1990  133.7030    0.1410 C.3    55  LYS55       0.0038
     23  CD       163.3310  133.5690    1.3790 C.3    55  LYS55       0.0206
     24  CE       162.4260  132.3510    1.2970 C.3    55  LYS55       0.1093
     25  NZ       161.4010  132.3500    2.3840 N.3    55  LYS55      -0.1314
     26  N        165.2790  133.7570   -2.9630 N.am   56  PRO56      -0.2727
     27  CA       164.6820  132.9290   -4.0150 C.3    56  PRO56       0.1402
     28  C        163.6790  131.9300   -3.4360 C.2    56  PRO56       0.2269
     29  O        163.6220  131.7310   -2.2200 O.2    56  PRO56      -0.2865
     30  CB       165.8950  132.2450   -4.6370 C.3    56  PRO56       0.0296
     31  CG       166.8040  132.0720   -3.4570 C.3    56  PRO56       0.0237
     32  CD       166.7020  133.4220   -2.7800 C.3    56  PRO56       0.0939
     33  N        164.7800  140.5240    7.7900 N.3    64  ARG64      -0.1245
     34  CA       165.6870  139.7860    8.6520 C.3    64  ARG64       0.1563
     35  C        166.2760  140.7160    9.6980 C.2    64  ARG64       0.2260
     36  O        166.3530  141.9270    9.4900 O.2    64  ARG64      -0.2867
     37  CB       166.8390  139.1890    7.8200 C.3    64  ARG64       0.0307
     38  CG       166.4380  138.1540    6.7960 C.3    64  ARG64       0.0489
     39  CD       166.1540  136.8170    7.4500 C.3    64  ARG64       0.2205
     40  NE       164.9600  136.1730    6.9030 N.pl3  64  ARG64      -0.0865
     41  CZ       164.9810  135.1380    6.0690 C.cat  64  ARG64       0.5346
     42  NH1      166.1390  134.6170    5.6760 N.pl3  64  ARG64       0.1354
     43  NH2      163.8410  134.6180    5.6340 N.pl3  64  ARG64       0.1354
     44  N        173.0290  129.9670    3.4290 N.3    87  ILE87      -0.1231
     45  CA       172.8340  130.9090    2.3420 C.3    87  ILE87       0.1692
     46  C        173.7780  132.1010    2.4320 C.2    87  ILE87       0.2592
     47  O        174.3030  132.5390    1.4170 O.2    87  ILE87      -0.2718
     48  CB       171.3620  131.4350    2.3090 C.3    87  ILE87       0.0266
     49  CG1      170.3990  130.3050    1.9180 C.3    87  ILE87       0.0019
     50  CG2      171.2280  132.5780    1.3050 C.3    87  ILE87       0.0020
     51  CD1      170.5740  129.7920    0.4770 C.3    87  ILE87       0.0001
     52  N        174.0040  132.6120    3.6420 N.am   88  ASN88      -0.1960
     53  CA       174.8600  133.7810    3.8350 C.3    88  ASN88       0.1819
     54  C        176.2420  133.4900    4.3920 C.2    88  ASN88       0.2621
     55  O        176.4730  132.4650    5.0300 O.2    88  ASN88      -0.2715
     56  CB       174.1840  134.7800    4.7670 C.3    88  ASN88       0.1195
     57  CG       172.7220  134.9480    4.4660 C.2    88  ASN88       0.2630
     58  OD1      172.2940  134.6950    3.3550 O.2    88  ASN88      -0.2716
     59  ND2      171.9480  135.3870    5.4510 N.am   88  ASN88      -0.0877
     60  N        177.1520  134.4290    4.1560 N.am   89  ARG89      -0.1977
     61  CA       178.5240  134.3360    4.6250 C.3    89  ARG89       0.1597
     62  C        178.5260  134.4860    6.1260 C.2    89  ARG89       0.2287
     63  O        177.7200  135.2240    6.6820 O.2    89  ARG89      -0.2864
     64  CB       179.3670  135.4500    4.0170 C.3    89  ARG89       0.0334
     65  CG       178.5700  136.6890    3.6870 C.3    89  ARG89       0.0492
     66  CD       179.4010  137.9360    3.8150 C.3    89  ARG89       0.2205
     67  NE       180.7350  137.7820    3.2430 N.pl3  89  ARG89      -0.0865
     68  CZ       181.7320  138.6350    3.4530 C.cat  89  ARG89       0.5346
     69  NH1      182.9210  138.4270    2.9050 N.pl3  89  ARG89       0.1354
     70  NH2      181.5340  139.7020    4.2120 N.pl3  89  ARG89       0.1354
     71  N        175.0910  138.0260    8.8390 N.3   156  VAL156     -0.1231
     72  CA       174.3900  139.2220    8.3950 C.3   156  VAL156      0.1678
     73  C        174.0220  139.0520    6.9280 C.2   156  VAL156      0.2434
     74  O        174.9030  138.9100    6.0750 O.2   156  VAL156     -0.2733
     75  CB       175.2760  140.4890    8.5900 C.3   156  VAL156      0.0265
     76  CG1      176.7170  140.1290    8.4160 C.3   156  VAL156      0.0020
     77  CG2      174.9050  141.5760    7.5770 C.3   156  VAL156      0.0020
     78  N        172.7150  139.0530    6.6090 N.am  157  PRO157     -0.2729
     79  CA       171.5590  139.2010    7.4960 C.3   157  PRO157      0.1401
     80  C        171.5520  138.2040    8.6440 C.2   157  PRO157      0.2269
     81  O        172.1990  137.1530    8.5750 O.2   157  PRO157     -0.2865
     82  CB       170.3760  138.9770    6.5590 C.3   157  PRO157      0.0296
     83  CG       170.8810  139.4410    5.2640 C.3   157  PRO157      0.0237
     84  CD       172.2600  138.8490    5.2280 C.3   157  PRO157      0.0939
     85  N        167.8240  129.7250    6.0310 N.3   163  ASP163     -0.1239
     86  CA       169.1970  129.9050    5.5780 C.3   163  ASP163      0.1674
     87  C        170.0770  128.7120    5.9240 C.2   163  ASP163      0.2266
     88  O        171.2240  128.6350    5.4890 O.2   163  ASP163     -0.2867
     89  CB       169.8170  131.1550    6.2180 C.3   163  ASP163      0.1410
     90  CG       168.9690  132.3990    6.0400 C.2   163  ASP163      0.3668
     91  OD1      168.0070  132.3700    5.2370 O.co2 163  ASP163     -0.2456
     92  OD2      169.2810  133.4120    6.7080 O.co2 163  ASP163     -0.2456
@<TRIPOS>BOND
     1    16    14   ar
     2    15    14   ar
     3    14    13    1
     4    30    27    1
     5    30    31    1
     6    13    12    1
     7    27    28    1
     8    27    26    1
     9    31    32    1
    10    28    29    2
    11    26    32    1
    12    26    19   am
    13    12     9    1
    14    20    19    2
    15    19    18    1
    16     9    10    1
    17     9     8    1
    18    10    11    2
    19    10    17   am
    20    17    18    1
    21    18    21    1
    22     8     3   am
    23    21    22    1
    24    22    23    1
    25    51    49    1
    26     3     4    2
    27     3     2    1
    28    24    23    1
    29    24    25    1
    30    50    48    1
    31    47    46    2
    32     6     5    1
    33     2     5    1
    34     2     1    1
    35    49    48    1
    36    48    45    1
    37    45    46    1
    38    45    44    1
    39    46    52   am
    40     5     7    1
    41    69    68    1
    42    67    68    2
    43    67    66    1
    44    58    57    2
    45    68    70    1
    46    52    53    1
    47    65    66    1
    48    65    64    1
    49    53    54    1
    50    53    56    1
    51    64    61    1
    52    60    54   am
    53    60    61    1
    54    54    55    2
    55    57    56    1
    56    57    59   am
    57    61    62    1
    58    84    83    1
    59    84    78    1
    60    91    90   ar
    61    83    82    1
    62    88    87    2
    63    86    87    1
    64    86    85    1
    65    86    89    1
    66    43    41    1
    67    42    41    1
    68    90    89    1
    69    90    92   ar
    70    41    40    2
    71    74    73    2
    72    62    63    2
    73    82    79    1
    74    78    73   am
    75    78    79    1
    76    38    39    1
    77    38    37    1
    78    40    39    1
    79    73    72    1
    80    79    80    1
    81    77    75    1
    82    33    34    1
    83    37    34    1
    84    72    75    1
    85    72    71    1
    86    76    75    1
    87    81    80    2
    88    34    35    1
    89    36    35    2
