@<TRIPOS>MOLECULE
tmp/1xe8A00.pdb
 128 120 0 0 0
SMALL
GASTEIGER

@<TRIPOS>ATOM
      1  N        195.2440  153.8000   13.9600 N.3    33  HIS33      -0.1241
      2  CA       193.8960  154.2790   13.7160 C.3    33  HIS33       0.1621
      3  C        193.8370  155.7290   14.1230 C.2    33  HIS33       0.2264
      4  O        194.7180  156.2210   14.8130 O.2    33  HIS33      -0.2867
      5  CB       192.8870  153.4880   14.5460 C.3    33  HIS33       0.0745
      6  CG       191.4660  153.7540   14.1670 C.ar   33  HIS33       0.0817
      7  ND1      190.8610  153.1500   13.0850 N.ar   33  HIS33      -0.2268
      8  CD2      190.5470  154.5990   14.6900 C.ar   33  HIS33       0.1154
      9  CE1      189.6310  153.6120   12.9580 C.ar   33  HIS33       0.1986
     10  NE2      189.4160  154.4930   13.9180 N.ar   33  HIS33      -0.2212
     11  N        191.6620  157.0530   16.1330 N.3    35  GLU35      -0.1245
     12  CA       191.3950  157.0570   17.5760 C.3    35  GLU35       0.1567
     13  C        192.6110  156.7300   18.4340 C.2    35  GLU35       0.2260
     14  O        192.7510  157.2280   19.5500 O.2    35  GLU35      -0.2867
     15  CB       190.3120  156.0380   17.9330 C.3    35  GLU35       0.0388
     16  CG       188.9030  156.5660   17.9060 C.3    35  GLU35       0.1160
     17  CD       188.1900  156.2440   16.6170 C.2    35  GLU35       0.3649
     18  OE1      187.7370  155.0840   16.4430 O.co2  35  GLU35      -0.2457
     19  OE2      188.0970  157.1620   15.7780 O.co2  35  GLU35      -0.2457
     20  N        194.7700  148.9350   13.9400 N.3    39  PHE39      -0.1241
     21  CA       193.6170  148.2580   13.3700 C.3    39  PHE39       0.1605
     22  C        193.8900  147.7840   11.9640 C.2    39  PHE39       0.2264
     23  O        194.9320  148.0930   11.3870 O.2    39  PHE39      -0.2867
     24  CB       192.4060  149.1950   13.3620 C.3    39  PHE39       0.0534
     25  CG       192.2780  150.0150   12.1100 C.ar   39  PHE39      -0.0203
     26  CD1      191.2700  149.7440   11.1870 C.ar   39  PHE39      -0.0042
     27  CD2      193.1750  151.0410   11.8380 C.ar   39  PHE39      -0.0042
     28  CE1      191.1590  150.4840   10.0040 C.ar   39  PHE39      -0.0003
     29  CE2      193.0760  151.7860   10.6630 C.ar   39  PHE39      -0.0003
     30  CZ       192.0670  151.5070    9.7440 C.ar   39  PHE39      -0.0000
     31  N        191.0740  146.5670    8.6910 N.3    41  GLU41      -0.1245
     32  CA       189.8260  146.0560    8.1470 C.3    41  GLU41       0.1567
     33  C        190.1430  144.7940    7.3580 C.2    41  GLU41       0.2260
     34  O        190.8450  144.8360    6.3490 O.2    41  GLU41      -0.2867
     35  CB       189.1910  147.0990    7.2400 C.3    41  GLU41       0.0388
     36  CG       187.8950  146.6500    6.6020 C.3    41  GLU41       0.1160
     37  CD       187.2480  147.7450    5.7820 C.2    41  GLU41       0.3649
     38  OE1      186.8090  148.7420    6.3910 O.co2  41  GLU41      -0.2457
     39  OE2      187.1880  147.6110    4.5390 O.co2  41  GLU41      -0.2457
     40  N        181.3960  145.1130    8.0020 N.3    64  THR64      -0.1218
     41  CA       182.8390  145.3110    7.9740 C.3    64  THR64       0.1862
     42  C        183.4620  144.7330    9.2320 C.2    64  THR64       0.2287
     43  O        182.8840  144.8140   10.3200 O.2    64  THR64      -0.2866
     44  CB       183.1900  146.7680    7.9240 C.3    64  THR64       0.1770
     45  OG1      182.4050  147.4650    8.8930 O.3    64  THR64      -0.2211
     46  CG2      182.9060  147.3190    6.5640 C.3    64  THR64       0.0375
     47  N        187.1820  144.3820   11.5100 N.3    66  ILE66      -0.1245
     48  CA       188.5160  144.9080   11.7140 C.3    66  ILE66       0.1561
     49  C        189.0890  144.2060   12.9240 C.2    66  ILE66       0.2260
     50  O        188.3600  143.5600   13.6850 O.2    66  ILE66      -0.2867
     51  CB       188.5330  146.4230   12.0260 C.3    66  ILE66       0.0252
     52  CG1      187.8880  146.6860   13.3930 C.3    66  ILE66       0.0019
     53  CG2      187.8180  147.1780   10.9580 C.3    66  ILE66       0.0019
     54  CD1      188.2340  148.0340   14.0040 C.3    66  ILE66       0.0001
     55  N        184.8910  158.5540   20.6580 N.3    80  HIS80      -0.1241
     56  CA       184.3110  158.7450   19.3390 C.3    80  HIS80       0.1621
     57  C        182.9250  158.1170   19.3550 C.2    80  HIS80       0.2264
     58  O        182.6370  157.2330   20.1590 O.2    80  HIS80      -0.2867
     59  CB       185.1730  158.0990   18.2550 C.3    80  HIS80       0.0745
     60  CG       185.2840  156.6100   18.3690 C.ar   80  HIS80       0.0817
     61  ND1      185.9090  155.9870   19.4280 N.ar   80  HIS80      -0.2268
     62  CD2      184.8670  155.6210   17.5420 C.ar   80  HIS80       0.1154
     63  CE1      185.8740  154.6790   19.2470 C.ar   80  HIS80       0.1986
     64  NE2      185.2480  154.4290   18.1100 N.ar   80  HIS80      -0.2212
     65  N        179.5250  156.5570   16.8680 N.3    82  ASN82      -0.1240
     66  CA       179.1750  155.9360   15.5850 C.3    82  ASN82       0.1653
     67  C        177.6690  155.8860   15.3700 C.2    82  ASN82       0.2266
     68  O        176.9020  155.7120   16.3140 O.2    82  ASN82      -0.2867
     69  CB       179.7230  154.5170   15.5100 C.3    82  ASN82       0.1155
     70  CG       181.0550  154.4520   14.8250 C.2    82  ASN82       0.2627
     71  OD1      181.1320  154.6220   13.6100 O.2    82  ASN82      -0.2716
     72  ND2      182.1250  154.2140   15.5950 N.am   82  ASN82      -0.0877
     73  N        177.9610  148.7270   17.3360 N.3    86  ILE86      -0.1245
     74  CA       179.1580  147.9620   17.0350 C.3    86  ILE86       0.1561
     75  C        179.3220  146.7270   17.9170 C.2    86  ILE86       0.2260
     76  O        179.1620  146.7890   19.1400 O.2    86  ILE86      -0.2867
     77  CB       180.4190  148.8380   17.1340 C.3    86  ILE86       0.0252
     78  CG1      180.3550  149.9330   16.0730 C.3    86  ILE86       0.0019
     79  CG2      181.6690  147.9790   16.9290 C.3    86  ILE86       0.0019
     80  CD1      181.6210  150.7230   15.9490 C.3    86  ILE86       0.0001
     81  N        186.0070  143.6650   15.6220 N.3   149  GLU149     -0.1245
     82  CA       184.8310  144.5220   15.6000 C.3   149  GLU149      0.1567
     83  C        184.0340  144.3550   14.3240 C.2   149  GLU149      0.2260
     84  O        184.6000  144.3730   13.2320 O.2   149  GLU149     -0.2867
     85  CB       185.2360  145.9890   15.7450 C.3   149  GLU149      0.0388
     86  CG       185.4280  146.4510   17.1740 C.3   149  GLU149      0.1160
     87  CD       185.8420  147.9100   17.2530 C.2   149  GLU149      0.3649
     88  OE1      185.2170  148.7480   16.5660 O.co2 149  GLU149     -0.2457
     89  OE2      186.7910  148.2210   18.0090 O.co2 149  GLU149     -0.2457
     90  N        180.7150  145.9050   12.2080 N.3   151  VAL151     -0.1245
     91  CA       179.7680  147.0060   12.1010 C.3   151  VAL151      0.1561
     92  C        178.7030  146.7050   11.0540 C.2   151  VAL151      0.2260
     93  O        179.0170  146.2980    9.9290 O.2   151  VAL151     -0.2867
     94  CB       180.4920  148.3120   11.7150 C.3   151  VAL151      0.0252
     95  CG1      179.6090  149.5050   12.0140 C.3   151  VAL151      0.0019
     96  CG2      181.8010  148.4140   12.4650 C.3   151  VAL151      0.0019
     97  N        181.0410  149.8900    8.3760 N.3   155  PHE155     -0.1241
     98  CA       181.6350  151.1790    8.7010 C.3   155  PHE155      0.1605
     99  C        181.8640  152.1210    7.5170 C.2   155  PHE155      0.2264
    100  O        182.2180  151.6990    6.4280 O.2   155  PHE155     -0.2867
    101  CB       182.9680  150.9760    9.4140 C.3   155  PHE155      0.0534
    102  CG       183.5700  152.2530    9.9210 C.ar  155  PHE155     -0.0203
    103  CD1      183.1870  152.7760   11.1520 C.ar  155  PHE155     -0.0042
    104  CD2      184.4860  152.9610    9.1480 C.ar  155  PHE155     -0.0042
    105  CE1      183.7080  153.9890   11.6040 C.ar  155  PHE155     -0.0003
    106  CE2      185.0100  154.1700    9.5860 C.ar  155  PHE155     -0.0003
    107  CZ       184.6220  154.6870   10.8140 C.ar  155  PHE155     -0.0000
    108  N        183.3150  156.3440    7.2940 N.3   157  PHE157     -0.1241
    109  CA       183.6530  157.5410    8.0610 C.3   157  PHE157      0.1605
    110  C        182.5840  158.6210    8.0820 C.2   157  PHE157      0.2264
    111  O        182.5450  159.4430    8.9880 O.2   157  PHE157     -0.2867
    112  CB       184.9920  158.1290    7.6050 C.3   157  PHE157      0.0534
    113  CG       186.1960  157.4360    8.2130 C.ar  157  PHE157     -0.0203
    114  CD1      186.8780  156.4330    7.5140 C.ar  157  PHE157     -0.0042
    115  CD2      186.6220  157.7580    9.5100 C.ar  157  PHE157     -0.0042
    116  CE1      187.9710  155.7560    8.0960 C.ar  157  PHE157     -0.0003
    117  CE2      187.7140  157.0850   10.1070 C.ar  157  PHE157     -0.0003
    118  CZ       188.3880  156.0830    9.3970 C.ar  157  PHE157     -0.0000
    119  N        181.1100  158.3020   11.2820 N.3   160  HIS160     -0.1241
    120  CA       181.9880  158.4100   12.4450 C.3   160  HIS160      0.1621
    121  C        182.1900  159.8520   12.9380 C.2   160  HIS160      0.2264
    122  O        182.3890  160.7640   12.1390 O.2   160  HIS160     -0.2867
    123  CB       183.3340  157.8000   12.0630 C.3   160  HIS160      0.0745
    124  CG       184.3900  157.9520   13.1060 C.ar  160  HIS160      0.0817
    125  ND1      184.7950  156.9060   13.9070 N.ar  160  HIS160     -0.2268
    126  CD2      185.1370  159.0210   13.4710 C.ar  160  HIS160      0.1154
    127  CE1      185.7490  157.3240   14.7190 C.ar  160  HIS160      0.1986
    128  NE2      185.9760  158.6040   14.4750 N.ar  160  HIS160     -0.2212
@<TRIPOS>BOND
     1    39    37   ar
     2    37    38   ar
     3    37    36    1
     4    34    33    2
     5   100    99    2
     6    46    44    1
     7    36    35    1
     8    35    32    1
     9   108   109    1
    10    33    32    1
    11   114   116   ar
    12   114   113   ar
    13    99    98    1
    14   112   109    1
    15   112   113    1
    16    44    41    1
    17    44    45    1
    18    41    40    1
    19    41    42    1
    20   109   110    1
    21   110   111    2
    22   116   118   ar
    23    32    31    1
    24   113   115   ar
    25    97    98    1
    26    98   101    1
    27   104   106   ar
    28   104   102   ar
    29    42    43    2
    30   118   117   ar
    31   101   102    1
    32   115   117   ar
    33   106   107   ar
    34    30    28   ar
    35    30    29   ar
    36   102   103   ar
    37    93    92    2
    38    28    26   ar
    39    29    27   ar
    40   107   105   ar
    41    53    51    1
    42    92    91    1
    43   103   105   ar
    44    26    25   ar
    45   119   120    1
    46    23    22    2
    47    47    48    1
    48    48    51    1
    49    48    49    1
    50    94    95    1
    51    94    91    1
    52    94    96    1
    53    27    25   ar
    54    22    21    1
    55    51    52    1
    56   123   120    1
    57   123   124    1
    58    91    90    1
    59    25    24    1
    60   122   121    2
    61   120   121    1
    62    49    50    2
    63     9     7   ar
    64     9    10   ar
    65     7     6   ar
    66   124   126   ar
    67   124   125   ar
    68    84    83    2
    69    24    21    1
    70    21    20    1
    71    52    54    1
    72   126   128   ar
    73    71    70    2
    74     2     1    1
    75     2     3    1
    76     2     5    1
    77   125   127   ar
    78    10     8   ar
    79     3     4    2
    80     6     5    1
    81     6     8   ar
    82    83    82    1
    83   128   127   ar
    84    70    69    1
    85    70    72   am
    86    67    66    1
    87    67    68    2
    88    69    66    1
    89    66    65    1
    90    82    81    1
    91    82    85    1
    92    85    86    1
    93    19    17   ar
    94    80    78    1
    95    78    77    1
    96    11    12    1
    97    18    17   ar
    98    88    87   ar
    99    17    16    1
   100    79    77    1
   101    74    77    1
   102    74    73    1
   103    74    75    1
   104    86    87    1
   105    87    89   ar
   106    62    64   ar
   107    62    60   ar
   108    12    15    1
   109    12    13    1
   110    16    15    1
   111    75    76    2
   112    64    63   ar
   113    59    60    1
   114    59    56    1
   115    60    61   ar
   116    13    14    2
   117    63    61   ar
   118    56    57    1
   119    56    55    1
   120    57    58    2
