@<TRIPOS>MOLECULE
tmp/1xelA01.pdb
 244 238 0 0 0
SMALL
GASTEIGER

@<TRIPOS>ATOM
      1  N         28.4880    7.3550   31.6550 N.3    84  LYS84      -0.1245
      2  CA        27.0720    7.3690   31.9900 C.3    84  LYS84       0.1561
      3  C         26.4350    8.7320   32.1940 C.2    84  LYS84       0.2260
      4  O         25.3210    8.7850   32.6920 O.2    84  LYS84      -0.2867
      5  CB        26.8370    6.4920   33.2470 C.3    84  LYS84       0.0271
      6  CG        27.6690    6.9740   34.4340 C.3    84  LYS84       0.0035
      7  CD        27.0890    6.5680   35.7850 C.3    84  LYS84       0.0206
      8  CE        27.7710    7.3150   36.9410 C.3    84  LYS84       0.1093
      9  NZ        27.0430    7.1760   38.1900 N.3    84  LYS84      -0.1314
     10  N         24.2540   11.2980   31.1120 N.3    86  VAL86      -0.1245
     11  CA        23.1960   11.4620   30.1350 C.3    86  VAL86       0.1561
     12  C         23.2840   12.7240   29.3180 C.2    86  VAL86       0.2260
     13  O         23.3380   12.6670   28.0930 O.2    86  VAL86      -0.2867
     14  CB        21.8120   11.1680   30.6990 C.3    86  VAL86       0.0252
     15  CG1       20.7840   11.3480   29.6110 C.3    86  VAL86       0.0019
     16  CG2       21.7510    9.7480   31.2600 C.3    86  VAL86       0.0019
     17  N         20.2740   -0.8670   31.8290 N.3   124  SER124     -0.1202
     18  CA        19.4380    0.1760   32.4460 C.3   124  SER124      0.2020
     19  C         17.9860    0.1580   31.9880 C.2   124  SER124      0.2619
     20  O         17.7010   -0.2190   30.8610 O.2   124  SER124     -0.2717
     21  CB        19.9990    1.5210   31.9090 C.3   124  SER124      0.2103
     22  OG        19.2830    2.6210   32.4550 O.3   124  SER124     -0.2182
     23  N         17.0940    0.6030   32.8870 N.am  125  ALA125     -0.1965
     24  CA        15.6670    0.7220   32.6240 C.3   125  ALA125      0.1728
     25  C         15.4220    1.6670   31.4720 C.2   125  ALA125      0.2616
     26  O         14.3300    1.7750   30.9300 O.2   125  ALA125     -0.2715
     27  CB        14.9370    1.3600   33.8290 C.3   125  ALA125      0.0334
     28  N         16.4530    2.4070   31.1010 N.am  126  THR126     -0.1951
     29  CA        16.3080    3.3260   30.0060 C.3   126  THR126      0.1897
     30  C         15.9640    2.5710   28.7160 C.2   126  THR126      0.2313
     31  O         15.3000    3.1090   27.8140 O.2   126  THR126     -0.2863
     32  CB        17.5950    4.1770   29.8330 C.3   126  THR126      0.1794
     33  OG1       17.2630    5.2360   28.9890 O.3   126  THR126     -0.2208
     34  CG2       18.5930    3.3220   29.0850 C.3   126  THR126      0.0378
     35  N         23.5190    7.8870   25.4290 N.3   149  TYR149     -0.1241
     36  CA        23.8200    6.9550   26.5230 C.3   149  TYR149      0.1605
     37  C         22.8310    5.7920   26.5770 C.2   149  TYR149      0.2264
     38  O         23.2370    4.6260   26.6410 O.2   149  TYR149     -0.2867
     39  CB        23.8000    7.6540   27.8720 C.3   149  TYR149      0.0534
     40  CG        23.7110    6.6910   29.0310 C.ar  149  TYR149     -0.0201
     41  CD1       24.8480    5.9840   29.4280 C.ar  149  TYR149     -0.0009
     42  CD2       22.5410    6.5420   29.7800 C.ar  149  TYR149     -0.0009
     43  CE1       24.8110    5.0890   30.4990 C.ar  149  TYR149      0.0417
     44  CE2       22.5010    5.6440   30.8560 C.ar  149  TYR149      0.0417
     45  CZ        23.6400    4.9240   31.2340 C.ar  149  TYR149      0.1957
     46  OH        23.6320    4.0740   32.3280 O.3   149  TYR149     -0.2866
     47  N         19.4060   -1.9400   35.6270 N.3   177  TYR177     -0.1227
     48  CA        19.3460   -1.1540   36.8390 C.3   177  TYR177      0.1736
     49  C         18.3330   -0.0310   36.7470 C.2   177  TYR177      0.2595
     50  O         18.1370    0.5760   35.6930 O.2   177  TYR177     -0.2718
     51  CB        20.6430   -0.4050   37.2000 C.3   177  TYR177      0.0548
     52  CG        21.9230   -1.2400   37.1310 C.ar  177  TYR177     -0.0200
     53  CD1       21.9130   -2.6410   37.1250 C.ar  177  TYR177     -0.0009
     54  CD2       23.1540   -0.5820   37.1090 C.ar  177  TYR177     -0.0009
     55  CE1       23.0900   -3.3890   37.0850 C.ar  177  TYR177      0.0417
     56  CE2       24.3410   -1.3090   37.0510 C.ar  177  TYR177      0.0417
     57  CZ        24.3030   -2.7040   36.9930 C.ar  177  TYR177      0.1957
     58  OH        25.4980   -3.3830   36.9050 O.3   177  TYR177     -0.2866
     59  N         17.7090    0.2530   37.9020 N.am  178  PHE178     -0.1962
     60  CA        16.7780    1.3560   38.0470 C.3   178  PHE178      0.1771
     61  C         17.5500    2.6030   38.5520 C.2   178  PHE178      0.2620
     62  O         18.3450    3.1280   37.8000 O.2   178  PHE178     -0.2715
     63  CB        15.4190    0.9620   38.7340 C.3   178  PHE178      0.0574
     64  CG        14.6010    0.1700   37.7070 C.ar  178  PHE178     -0.0200
     65  CD1       15.0530   -1.0690   37.2460 C.ar  178  PHE178     -0.0042
     66  CD2       13.4640    0.7320   37.1180 C.ar  178  PHE178     -0.0042
     67  CE1       14.3600   -1.7310   36.2110 C.ar  178  PHE178     -0.0003
     68  CE2       12.7350    0.0610   36.1140 C.ar  178  PHE178     -0.0003
     69  CZ        13.1910   -1.1830   35.6780 C.ar  178  PHE178     -0.0000
     70  N         17.3780    3.0720   39.8080 N.am  179  ASN179     -0.1959
     71  CA        18.1280    4.2610   40.2880 C.3   179  ASN179      0.1804
     72  C         18.9720    3.9610   41.5250 C.2   179  ASN179      0.2463
     73  O         18.4900    4.0800   42.6520 O.2   179  ASN179     -0.2730
     74  CB        17.1850    5.4770   40.5900 C.3   179  ASN179      0.1195
     75  CG        16.5100    6.0360   39.3230 C.2   179  ASN179      0.2630
     76  OD1       15.8010    5.3220   38.5340 O.2   179  ASN179     -0.2716
     77  ND2       16.7940    7.3080   39.0420 N.am  179  ASN179     -0.0877
     78  N         20.2470    3.5880   41.3110 N.am  180  PRO180     -0.2727
     79  CA        21.1710    3.2340   42.4000 C.3   180  PRO180      0.1402
     80  C         21.5360    4.4020   43.3070 C.2   180  PRO180      0.2269
     81  O         21.9130    5.4730   42.8470 O.2   180  PRO180     -0.2865
     82  CB        22.4690    2.5970   41.7880 C.3   180  PRO180      0.0296
     83  CG        22.1090    2.3920   40.3170 C.3   180  PRO180      0.0237
     84  CD        20.8910    3.2690   39.9870 C.3   180  PRO180      0.0939
     85  N         26.9140   16.9890   40.4600 N.3   197  PRO197     -0.2102
     86  CA        26.3240   15.6700   40.3310 C.3   197  PRO197      0.1504
     87  C         25.0560   15.7600   39.4830 C.2   197  PRO197      0.2576
     88  O         24.2720   16.7150   39.5940 O.2   197  PRO197     -0.2718
     89  CB        26.0690   15.1610   41.7690 C.3   197  PRO197      0.0282
     90  CG        26.3440   16.2940   42.7120 C.3   197  PRO197      0.0208
     91  CD        26.7480   17.4900   41.8650 C.3   197  PRO197      0.0893
     92  N         24.8510   14.7690   38.6250 N.am  198  ASN198     -0.1961
     93  CA        23.6820   14.7920   37.7800 C.3   198  ASN198      0.1819
     94  C         22.4820   14.1450   38.4470 C.2   198  ASN198      0.2621
     95  O         21.3400   14.4630   38.1280 O.2   198  ASN198     -0.2715
     96  CB        23.9780   14.0460   36.4410 C.3   198  ASN198      0.1195
     97  CG        25.0740   14.7530   35.6620 C.2   198  ASN198      0.2630
     98  OD1       26.1020   14.1680   35.3570 O.2   198  ASN198     -0.2716
     99  ND2       24.8870   16.0230   35.3540 N.am  198  ASN198     -0.0877
    100  N         22.7540   13.1990   39.3320 N.am  199  ASN199     -0.1958
    101  CA        21.6850   12.4600   40.0160 C.3   199  ASN199      0.1819
    102  C         21.1130   13.1540   41.2550 C.2   199  ASN199      0.2621
    103  O         21.7770   13.9300   41.9220 O.2   199  ASN199     -0.2715
    104  CB        22.1380   11.0360   40.4060 C.3   199  ASN199      0.1195
    105  CG        22.5510   10.3000   39.1710 C.2   199  ASN199      0.2630
    106  OD1       23.7270   10.1440   38.9290 O.2   199  ASN199     -0.2716
    107  ND2       21.5860    9.9510   38.3610 N.am  199  ASN199     -0.0877
    108  N         19.8710   12.8200   41.5770 N.am  200  LEU200     -0.1977
    109  CA        19.1840   13.4230   42.6860 C.3   200  LEU200      0.1596
    110  C         19.8530   13.2880   44.0390 C.2   200  LEU200      0.2287
    111  O         20.0790   14.2630   44.7370 O.2   200  LEU200     -0.2864
    112  CB        17.7510   12.8250   42.7270 C.3   200  LEU200      0.0297
    113  CG        16.8570   13.3670   43.8670 C.3   200  LEU200      0.0022
    114  CD1       16.5980   14.8790   43.6260 C.3   200  LEU200      0.0001
    115  CD2       15.5110   12.5840   43.8530 C.3   200  LEU200      0.0001
    116  N         23.1570   15.1200   44.6180 N.3   203  TYR203     -0.1241
    117  CA        22.9000   16.5470   44.5500 C.3   203  TYR203      0.1605
    118  C         22.3370   17.0050   45.8660 C.2   203  TYR203      0.2264
    119  O         22.7880   17.9750   46.4280 O.2   203  TYR203     -0.2867
    120  CB        21.9780   16.9780   43.4140 C.3   203  TYR203      0.0534
    121  CG        22.1460   18.4420   43.1940 C.ar  203  TYR203     -0.0201
    122  CD1       21.6330   19.3250   44.1370 C.ar  203  TYR203     -0.0009
    123  CD2       22.8430   18.9810   42.1080 C.ar  203  TYR203     -0.0009
    124  CE1       21.7320   20.7130   43.9720 C.ar  203  TYR203      0.0417
    125  CE2       22.9470   20.3680   41.9290 C.ar  203  TYR203      0.0417
    126  CZ        22.4220   21.2460   42.8830 C.ar  203  TYR203      0.1957
    127  OH        22.5020   22.6370   42.7200 O.3   203  TYR203     -0.2866
    128  N         18.3590   22.5280   46.0180 N.3   215  LEU215     -0.1231
    129  CA        18.0950   21.4850   45.0620 C.3   215  LEU215      0.1693
    130  C         17.0380   21.9980   44.1220 C.2   215  LEU215      0.2592
    131  O         15.9770   22.4830   44.5530 O.2   215  LEU215     -0.2718
    132  CB        17.4730   20.2010   45.7240 C.3   215  LEU215      0.0284
    133  CG        16.7690   19.1880   44.7120 C.3   215  LEU215      0.0019
    134  CD1       17.7850   18.3130   43.9150 C.3   215  LEU215      0.0001
    135  CD2       15.8580   18.2030   45.4760 C.3   215  LEU215      0.0001
    136  N         17.3380   21.8910   42.8130 N.am  216  ALA216     -0.1966
    137  CA        16.3610   22.2840   41.8140 C.3   216  ALA216      0.1728
    138  C         15.5290   21.0510   41.4920 C.2   216  ALA216      0.2616
    139  O         16.0680   20.0280   41.0650 O.2   216  ALA216     -0.2715
    140  CB        17.0580   22.7790   40.5350 C.3   216  ALA216      0.0334
    141  N         14.2460   21.1130   41.7760 N.am  217  ILE217     -0.1963
    142  CA        13.3580   20.0000   41.5030 C.3   217  ILE217      0.1727
    143  C         12.8130   20.1990   40.1030 C.2   217  ILE217      0.2616
    144  O         12.0680   21.1500   39.8270 O.2   217  ILE217     -0.2715
    145  CB        12.2420   19.9130   42.5450 C.3   217  ILE217      0.0290
    146  CG1       12.8610   19.6300   43.9250 C.3   217  ILE217      0.0022
    147  CG2       11.2490   18.8340   42.1190 C.3   217  ILE217      0.0023
    148  CD1       11.8020   19.3350   44.9650 C.3   217  ILE217      0.0001
    149  N         13.2340   19.3200   39.1970 N.am  218  PHE218     -0.1974
    150  CA        12.8580   19.4630   37.8040 C.3   218  PHE218      0.1639
    151  C         11.4280   19.0730   37.4940 C.2   218  PHE218      0.2290
    152  O         11.1180   17.9170   37.1660 O.2   218  PHE218     -0.2864
    153  CB        13.8430   18.6860   36.9030 C.3   218  PHE218      0.0560
    154  CG        15.2960   19.0360   37.1410 C.ar  218  PHE218     -0.0200
    155  CD1       15.7010   20.3720   37.1900 C.ar  218  PHE218     -0.0042
    156  CD2       16.2610   18.0310   37.2940 C.ar  218  PHE218     -0.0042
    157  CE1       17.0410   20.6890   37.4320 C.ar  218  PHE218     -0.0003
    158  CE2       17.6130   18.3260   37.5060 C.ar  218  PHE218     -0.0003
    159  CZ        17.9820   19.6670   37.6010 C.ar  218  PHE218     -0.0000
    160  N          4.0510   17.0660   36.9680 N.3   222  TYR222     -0.1241
    161  CA         3.8780   15.7690   36.3600 C.3   222  TYR222      0.1605
    162  C          2.5910   15.1550   36.8750 C.2   222  TYR222      0.2264
    163  O          2.0490   15.6060   37.8820 O.2   222  TYR222     -0.2867
    164  CB         5.0470   14.9180   36.7520 C.3   222  TYR222      0.0534
    165  CG         6.2040   15.2500   35.9190 C.ar  222  TYR222     -0.0201
    166  CD1        6.2160   14.9900   34.5480 C.ar  222  TYR222     -0.0009
    167  CD2        7.3450   15.7200   36.5500 C.ar  222  TYR222     -0.0009
    168  CE1        7.3810   15.2460   33.8110 C.ar  222  TYR222      0.0417
    169  CE2        8.5270   15.9630   35.8150 C.ar  222  TYR222      0.0417
    170  CZ         8.5250   15.7610   34.4380 C.ar  222  TYR222      0.1957
    171  OH         9.7270   15.9580   33.7540 O.3   222  TYR222     -0.2866
    172  N          8.7030   13.9600   39.8600 N.3   229  GLY229     -0.1225
    173  CA         9.0320   12.7190   39.1770 C.3   229  GLY229      0.1811
    174  C          9.1340   11.5550   40.1470 C.2   229  GLY229      0.2280
    175  O          9.5630   11.7560   41.2750 O.2   229  GLY229     -0.2866
    176  N         10.5640    7.5380   40.7250 N.3   231  ARG231     -0.1245
    177  CA        11.5440    6.5400   40.2850 C.3   231  ARG231      0.1563
    178  C         11.6460    5.4000   41.2770 C.2   231  ARG231      0.2260
    179  O         11.1240    5.4980   42.4010 O.2   231  ARG231     -0.2867
    180  CB        12.9740    7.1620   40.2030 C.3   231  ARG231      0.0307
    181  CG        12.9760    8.2700   39.1990 C.3   231  ARG231      0.0489
    182  CD        12.9810    7.7000   37.8060 C.3   231  ARG231      0.2205
    183  NE        13.1980    8.7280   36.7700 N.pl3 231  ARG231     -0.0865
    184  CZ        12.2120    9.4840   36.2370 C.cat 231  ARG231      0.5346
    185  NH1       10.9080    9.3870   36.6240 N.pl3 231  ARG231      0.1354
    186  NH2       12.5580   10.3640   35.2780 N.pl3 231  ARG231      0.1354
    187  N         14.1950    3.7090   43.4530 N.3   233  TYR233     -0.1241
    188  CA        15.5180    3.8420   44.0420 C.3   233  TYR233      0.1605
    189  C         15.9210    2.5420   44.6390 C.2   233  TYR233      0.2264
    190  O         15.1240    1.9000   45.2840 O.2   233  TYR233     -0.2867
    191  CB        15.5570    4.9610   45.1050 C.3   233  TYR233      0.0534
    192  CG        15.2830    6.2700   44.3680 C.ar  233  TYR233     -0.0201
    193  CD1       16.3200    6.9120   43.6690 C.ar  233  TYR233     -0.0009
    194  CD2       14.0130    6.8410   44.3470 C.ar  233  TYR233     -0.0009
    195  CE1       16.0980    8.0800   42.9420 C.ar  233  TYR233      0.0417
    196  CE2       13.7590    7.9930   43.6040 C.ar  233  TYR233      0.0417
    197  CZ        14.8050    8.6070   42.9040 C.ar  233  TYR233      0.1957
    198  OH        14.5580    9.7180   42.1450 O.3   233  TYR233     -0.2866
    199  N         10.3430   12.8090   44.0140 N.3   269  VAL269     -0.1245
    200  CA        11.4770   13.6520   44.3800 C.3   269  VAL269      0.1561
    201  C         11.3100   14.1140   45.8230 C.2   269  VAL269      0.2260
    202  O         12.2610   14.1200   46.6030 O.2   269  VAL269     -0.2867
    203  CB        11.6060   14.8710   43.4280 C.3   269  VAL269      0.0252
    204  CG1       12.7670   15.7410   43.8650 C.3   269  VAL269      0.0019
    205  CG2       11.9400   14.3890   41.9870 C.3   269  VAL269      0.0019
    206  N         13.1710   18.6890   33.2480 N.3   292  ARG292     -0.1245
    207  CA        14.4390   18.4680   32.6030 C.3   292  ARG292      0.1563
    208  C         14.2000   17.6680   31.3400 C.2   292  ARG292      0.2260
    209  O         13.5050   16.6700   31.3380 O.2   292  ARG292     -0.2867
    210  CB        15.3170   17.6670   33.5290 C.3   292  ARG292      0.0307
    211  CG        16.6460   17.3310   32.9230 C.3   292  ARG292      0.0489
    212  CD        17.5290   16.6490   33.9770 C.3   292  ARG292      0.2205
    213  NE        16.9800   15.3720   34.4640 N.pl3 292  ARG292     -0.0865
    214  CZ        17.6500   14.6160   35.3600 C.cat 292  ARG292      0.5346
    215  NH1       18.8170   15.0270   35.8640 N.pl3 292  ARG292      0.1354
    216  NH2       17.1640   13.4420   35.7820 N.pl3 292  ARG292      0.1354
    217  N         13.1570   13.7060   30.6230 N.3   295  ASP295     -0.1225
    218  CA        12.7060   13.0110   31.8060 C.3   295  ASP295      0.1805
    219  C         11.3120   12.4260   31.6720 C.2   295  ASP295      0.2597
    220  O         10.3670   13.1000   31.2420 O.2   295  ASP295     -0.2718
    221  CB        12.7240   13.9220   33.0670 C.3   295  ASP295      0.1424
    222  CG        14.0730   14.1030   33.7320 C.2   295  ASP295      0.3668
    223  OD1       15.0630   13.4560   33.4530 O.co2 295  ASP295     -0.2456
    224  OD2       14.0750   15.0270   34.6680 O.co2 295  ASP295     -0.2456
    225  N         11.1630   11.1540   32.0680 N.am  296  LEU296     -0.1979
    226  CA         9.8260   10.5690   32.0910 C.3   296  LEU296      0.1596
    227  C          9.1950   10.8840   33.4600 C.2   296  LEU296      0.2287
    228  O          9.8920   10.9970   34.4770 O.2   296  LEU296     -0.2864
    229  CB         9.8490    9.0290   31.8970 C.3   296  LEU296      0.0297
    230  CG        10.2580    8.5700   30.4920 C.3   296  LEU296      0.0022
    231  CD1       10.7170    7.1040   30.6200 C.3   296  LEU296      0.0001
    232  CD2        8.9990    8.5890   29.6450 C.3   296  LEU296      0.0001
    233  N          8.1470    5.8410   36.7280 N.3   299  TYR299     -0.1241
    234  CA         8.3680    4.4600   36.3440 C.3   299  TYR299      0.1605
    235  C          9.1070    3.7760   37.4630 C.2   299  TYR299      0.2264
    236  O          9.7780    4.4320   38.2380 O.2   299  TYR299     -0.2867
    237  CB         9.0230    4.2230   34.9330 C.3   299  TYR299      0.0534
    238  CG        10.4700    4.7100   34.8320 C.ar  299  TYR299     -0.0201
    239  CD1       11.5460    3.9050   35.2110 C.ar  299  TYR299     -0.0009
    240  CD2       10.7280    6.0050   34.3840 C.ar  299  TYR299     -0.0009
    241  CE1       12.8600    4.3730   35.1540 C.ar  299  TYR299      0.0417
    242  CE2       12.0240    6.5110   34.3750 C.ar  299  TYR299      0.0417
    243  CZ        13.0870    5.6800   34.7140 C.ar  299  TYR299      0.1957
    244  OH        14.3780    6.1980   34.6450 O.3   299  TYR299     -0.2866
@<TRIPOS>BOND
     1    35    36    1
     2    36    37    1
     3    36    39    1
     4    37    38    2
     5    31    30    2
     6    39    40    1
     7    13    12    2
     8    30    29    1
     9    33    32    1
    10    40    41   ar
    11    40    42   ar
    12    34    32    1
    13    12    11    1
    14    41    43   ar
    15    15    14    1
    16   232   230    1
    17    42    44   ar
    18    32    29    1
    19    29    28    1
    20    11    14    1
    21    11    10    1
    22   230   231    1
    23   230   229    1
    24    43    45   ar
    25   217   218    1
    26    14    16    1
    27    44    45   ar
    28    20    19    2
    29    26    25    2
    30    28    25   am
    31    45    46    1
    32   220   219    2
    33   209   208    2
    34   208   207    1
    35    25    24    1
    36     1     2    1
    37   219   218    1
    38   219   225   am
    39   218   221    1
    40    17    18    1
    41   229   226    1
    42    21    18    1
    43    21    22    1
    44    19    18    1
    45    19    23   am
    46     2     3    1
    47     2     5    1
    48   225   226    1
    49   226   227    1
    50     3     4    2
    51   207   206    1
    52   207   210    1
    53    24    23    1
    54    24    27    1
    55   211   210    1
    56   211   212    1
    57   221   222    1
    58     5     6    1
    59   223   222   ar
    60   227   228    2
    61   222   224   ar
    62   171   170    1
    63   168   170   ar
    64   168   166   ar
    65   212   213    1
    66   242   240   ar
    67   242   243   ar
    68   240   238   ar
    69     6     7    1
    70   170   169   ar
    71   213   214    2
    72   166   165   ar
    73   244   243    1
    74   243   241   ar
    75   238   237    1
    76   238   239   ar
    77   237   234    1
    78   241   239   ar
    79   186   184    1
    80    99    97   am
    81    98    97    2
    82   214   216    1
    83   214   215    1
    84    47    48    1
    85    97    96    1
    86    69    68   ar
    87    69    67   ar
    88    50    49    2
    89     7     8    1
    90   169   167   ar
    91   165   167   ar
    92   165   164    1
    93    68    66   ar
    94    67    65   ar
    95   184   185    1
    96   184   183    2
    97   234   233    1
    98   234   235    1
    99   161   164    1
   100   161   162    1
   101   161   160    1
   102    96    93    1
   103    49    48    1
   104    49    59   am
   105   183   182    1
   106    48    51    1
   107   162   163    2
   108   153   154    1
   109   153   150    1
   110    58    57    1
   111     8     9    1
   112    57    56   ar
   113    57    55   ar
   114    56    54   ar
   115    55    53   ar
   116    54    52   ar
   117    66    64   ar
   118    53    52   ar
   119    52    51    1
   120   154   155   ar
   121   154   156   ar
   122   152   151    2
   123   155   157   ar
   124    65    64   ar
   125   156   158   ar
   126   157   159   ar
   127   235   236    2
   128   151   150    1
   129   158   159   ar
   130    64    63    1
   131    93    94    1
   132    93    92    1
   133    62    61    2
   134   150   149    1
   135   182   181    1
   136    59    60    1
   137    60    61    1
   138    60    63    1
   139    95    94    2
   140   107   105   am
   141    94   100   am
   142    76    75    2
   143    61    70   am
   144    92    87   am
   145   106   105    2
   146    77    75   am
   147   105   104    1
   148   173   172    1
   149   173   174    1
   150   149   143   am
   151   181   180    1
   152    75    74    1
   153   100   101    1
   154    87    88    2
   155    87    86    1
   156    70    71    1
   157   144   143    2
   158    84    83    1
   159    84    78    1
   160   101   104    1
   161   101   102    1
   162   143   142    1
   163   174   175    2
   164   180   177    1
   165   177   176    1
   166   177   178    1
   167    71    74    1
   168    71    72    1
   169    83    82    1
   170    86    85    1
   171    86    89    1
   172    85    91    1
   173   140   137    1
   174   139   138    2
   175   102   108   am
   176   102   103    2
   177   178   179    2
   178    78    72   am
   179    78    79    1
   180   138   141   am
   181   138   137    1
   182   142   141    1
   183   142   145    1
   184    72    73    2
   185   108   109    1
   186    89    90    1
   187    82    79    1
   188   137   136    1
   189    91    90    1
   190   125   123   ar
   191   125   126   ar
   192   205   203    1
   193   123   121   ar
   194   147   145    1
   195   198   197    1
   196    79    80    1
   197   145   146    1
   198   109   112    1
   199   109   110    1
   200   127   126    1
   201   112   113    1
   202   136   130   am
   203    81    80    2
   204   126   124   ar
   205   197   195   ar
   206   197   196   ar
   207   195   193   ar
   208   121   120    1
   209   121   122   ar
   210   120   117    1
   211   203   204    1
   212   203   200    1
   213   187   188    1
   214   196   194   ar
   215   114   113    1
   216   193   192   ar
   217   115   113    1
   218   134   133    1
   219   146   148    1
   220   124   122   ar
   221   199   200    1
   222   110   111    2
   223   188   189    1
   224   188   191    1
   225   130   131    2
   226   130   129    1
   227   194   192   ar
   228   192   191    1
   229   200   201    1
   230   117   116    1
   231   117   118    1
   232   189   190    2
   233   133   135    1
   234   133   132    1
   235   129   132    1
   236   129   128    1
   237   201   202    2
   238   118   119    2
