@<TRIPOS>MOLECULE
tmp/1xepA00.pdb
 117 108 0 0 0
SMALL
GASTEIGER

@<TRIPOS>ATOM
      1  N         24.1260    7.2190   12.2240 N.3    78  ILE78      -0.1245
      2  CA        23.7870    6.6660   10.9250 C.3    78  ILE78       0.1561
      3  C         22.5900    5.7310   11.0630 C.2    78  ILE78       0.2260
      4  O         21.6510    5.7950   10.2740 O.2    78  ILE78      -0.2867
      5  CB        24.9790    5.8790   10.3400 C.3    78  ILE78       0.0252
      6  CG1       26.0530    6.8520    9.8390 C.3    78  ILE78       0.0019
      7  CG2       24.5150    4.9870    9.1880 C.3    78  ILE78       0.0019
      8  CD1       27.3740    6.1600    9.4420 C.3    78  ILE78       0.0001
      9  N         19.9860    7.1640    5.7800 N.3    84  LEU84      -0.1245
     10  CA        21.2980    6.5370    5.7860 C.3    84  LEU84       0.1561
     11  C         21.3490    5.0760    6.2090 C.2    84  LEU84       0.2260
     12  O         22.1600    4.3110    5.6830 O.2    84  LEU84      -0.2867
     13  CB        22.2520    7.3400    6.6930 C.3    84  LEU84       0.0270
     14  CG        22.3730    8.8390    6.4120 C.3    84  LEU84       0.0019
     15  CD1       23.3650    9.4870    7.3840 C.3    84  LEU84       0.0001
     16  CD2       22.8140    9.0200    4.9720 C.3    84  LEU84       0.0001
     17  N         21.1530    2.2360    3.3790 N.3    87  VAL87      -0.1231
     18  CA        22.3210    2.1410    2.5270 C.3    87  VAL87       0.1692
     19  C         23.4760    1.5500    3.3340 C.2    87  VAL87       0.2592
     20  O         24.1990    0.6780    2.8750 O.2    87  VAL87      -0.2718
     21  CB        22.7280    3.5200    1.9880 C.3    87  VAL87       0.0266
     22  CG1       23.9140    3.3680    1.0430 C.3    87  VAL87       0.0020
     23  CG2       21.5370    4.1560    1.2590 C.3    87  VAL87       0.0020
     24  N         23.6460    2.0270    4.5590 N.am   88  TYR88      -0.1976
     25  CA        24.7040    1.5170    5.4150 C.3    88  TYR88       0.1639
     26  C         24.5530    0.0100    5.6230 C.2    88  TYR88       0.2290
     27  O         25.5180   -0.7470    5.5150 O.2    88  TYR88      -0.2864
     28  CB        24.6290    2.2160    6.7680 C.3    88  TYR88       0.0560
     29  CG        25.6840    1.7840    7.7350 C.ar   88  TYR88      -0.0198
     30  CD1       26.9650    2.3440    7.6910 C.ar   88  TYR88      -0.0009
     31  CD2       25.4030    0.8400    8.7280 C.ar   88  TYR88      -0.0009
     32  CE1       27.9400    1.9820    8.6170 C.ar   88  TYR88       0.0417
     33  CE2       26.3720    0.4750    9.6480 C.ar   88  TYR88       0.0417
     34  CZ        27.6340    1.0440    9.5900 C.ar   88  TYR88       0.1957
     35  OH        28.5930    0.6550   10.4920 O.3    88  TYR88      -0.2866
     36  N         25.7640   -2.2950    2.8430 N.3    91  LEU91      -0.1245
     37  CA        27.2010   -2.3960    2.5840 C.3    91  LEU91       0.1561
     38  C         27.9330   -3.4880    3.3380 C.2    91  LEU91       0.2260
     39  O         27.4480   -3.9670    4.3730 O.2    91  LEU91      -0.2867
     40  CB        27.8860   -1.0680    2.9480 C.3    91  LEU91       0.0270
     41  CG        27.3610    0.2140    2.3060 C.3    91  LEU91       0.0019
     42  CD1       28.0210    1.4180    2.9820 C.3    91  LEU91       0.0001
     43  CD2       27.6650    0.2100    0.8160 C.3    91  LEU91       0.0001
     44  N         31.6880    4.9160    5.0100 N.3    99  ALA99      -0.1245
     45  CA        30.5030    5.6690    5.3810 C.3    99  ALA99       0.1562
     46  C         30.6870    6.3720    6.7330 C.2    99  ALA99       0.2260
     47  O         30.3120    7.5470    6.8950 O.2    99  ALA99      -0.2867
     48  CB        29.2790    4.7190    5.4310 C.3    99  ALA99       0.0290
     49  N         33.0320    9.3680    6.2830 N.3   102  GLN102     -0.1231
     50  CA        32.3230   10.5130    5.7190 C.3   102  GLN102      0.1698
     51  C         31.5250   11.2660    6.7730 C.2   102  GLN102      0.2592
     52  O         31.6460   12.4830    6.9170 O.2   102  GLN102     -0.2718
     53  CB        31.3520   10.0590    4.6340 C.3   102  GLN102      0.0381
     54  CG        31.9540    9.8820    3.2790 C.3   102  GLN102      0.0905
     55  CD        30.9090    9.9880    2.1810 C.2   102  GLN102      0.2608
     56  OE1       29.8400    9.3950    2.2760 O.2   102  GLN102     -0.2717
     57  NE2       31.2210   10.7400    1.1310 N.am  102  GLN102     -0.0878
     58  N         30.6950   10.5390    7.5110 N.am  103  VAL103     -0.1980
     59  CA        29.8490   11.1710    8.5200 C.3   103  VAL103      0.1595
     60  C         30.6860   11.8090    9.6380 C.2   103  VAL103      0.2287
     61  O         30.3400   12.8840   10.1460 O.2   103  VAL103     -0.2864
     62  CB        28.8140   10.1500    9.1020 C.3   103  VAL103      0.0276
     63  CG1       28.1360   10.7330   10.3540 C.3   103  VAL103      0.0022
     64  CG2       27.7320    9.8730    8.0640 C.3   103  VAL103      0.0022
     65  N         26.1490   14.9960    4.8100 N.3   111  VAL111     -0.1245
     66  CA        25.8680   13.8890    3.8910 C.3   111  VAL111      0.1561
     67  C         24.4720   14.0110    3.2630 C.2   111  VAL111      0.2260
     68  O         24.0980   13.2260    2.3840 O.2   111  VAL111     -0.2867
     69  CB        25.9990   12.5280    4.6400 C.3   111  VAL111      0.0252
     70  CG1       25.7690   11.3700    3.7030 C.3   111  VAL111      0.0019
     71  CG2       27.3770   12.4080    5.2520 C.3   111  VAL111      0.0019
     72  N         24.1200   14.0620   -0.4910 N.3   114  PHE114     -0.1241
     73  CA        24.6340   12.8980   -1.2090 C.3   114  PHE114      0.1605
     74  C         23.6070   11.8380   -1.6030 C.2   114  PHE114      0.2264
     75  O         23.9450   10.6920   -1.8760 O.2   114  PHE114     -0.2867
     76  CB        25.7700   12.2670   -0.4040 C.3   114  PHE114      0.0534
     77  CG        27.0400   13.0680   -0.4410 C.ar  114  PHE114     -0.0203
     78  CD1       27.1660   14.2410    0.2940 C.ar  114  PHE114     -0.0042
     79  CD2       28.0940   12.6740   -1.2600 C.ar  114  PHE114     -0.0042
     80  CE1       28.3260   15.0060    0.2090 C.ar  114  PHE114     -0.0003
     81  CE2       29.2550   13.4250   -1.3540 C.ar  114  PHE114     -0.0003
     82  CZ        29.3760   14.5950   -0.6180 C.ar  114  PHE114     -0.0000
     83  N         24.3300    7.9590   -2.5960 N.3   118  LEU118     -0.1245
     84  CA        23.7890    6.9400   -1.7000 C.3   118  LEU118      0.1561
     85  C         23.0020    5.8770   -2.4510 C.2   118  LEU118      0.2260
     86  O         23.1220    4.6820   -2.1760 O.2   118  LEU118     -0.2867
     87  CB        22.8730    7.5860   -0.6590 C.3   118  LEU118      0.0270
     88  CG        23.6130    8.4670    0.3330 C.3   118  LEU118      0.0019
     89  CD1       22.6210    9.2260    1.2030 C.3   118  LEU118      0.0001
     90  CD2       24.5330    7.5840    1.1770 C.3   118  LEU118      0.0001
     91  N         25.3320    3.6580   -4.3110 N.3   121  LEU121     -0.1245
     92  CA        26.0230    2.7530   -3.3950 C.3   121  LEU121      0.1561
     93  C         25.0970    1.6010   -3.0080 C.2   121  LEU121      0.2260
     94  O         25.5420    0.4520   -2.9790 O.2   121  LEU121     -0.2867
     95  CB        26.4970    3.4950   -2.1350 C.3   121  LEU121      0.0270
     96  CG        27.6460    4.4890   -2.3530 C.3   121  LEU121      0.0019
     97  CD1       27.8900    5.2450   -1.0500 C.3   121  LEU121      0.0001
     98  CD2       28.9200    3.7530   -2.7930 C.3   121  LEU121      0.0001
     99  N         30.3850   10.7210   -6.2020 N.3   133  LEU133     -0.1245
    100  CA        30.8670   11.2010   -4.9110 C.3   133  LEU133      0.1561
    101  C         31.8740   12.3350   -5.0690 C.2   133  LEU133      0.2260
    102  O         31.9560   13.2180   -4.2140 O.2   133  LEU133     -0.2867
    103  CB        31.5270   10.0410   -4.1470 C.3   133  LEU133      0.0270
    104  CG        30.5700    9.0190   -3.5030 C.3   133  LEU133      0.0019
    105  CD1       31.3490    7.7210   -3.2180 C.3   133  LEU133      0.0001
    106  CD2       29.9330    9.5920   -2.2290 C.3   133  LEU133      0.0001
    107  N         35.0770    3.1150   -0.9980 N.3   153  PHE153     -0.1241
    108  CA        33.6930    2.8500   -1.4360 C.3   153  PHE153      0.1605
    109  C         33.6900    2.1280   -2.7830 C.2   153  PHE153      0.2264
    110  O         32.8430    1.2740   -3.0370 O.2   153  PHE153     -0.2867
    111  CB        32.9210    4.1600   -1.6500 C.3   153  PHE153      0.0534
    112  CG        32.2810    4.7420   -0.4080 C.ar  153  PHE153     -0.0203
    113  CD1       32.4970    6.0740   -0.0840 C.ar  153  PHE153     -0.0042
    114  CD2       31.3950    4.0010    0.3810 C.ar  153  PHE153     -0.0042
    115  CE1       31.8430    6.6680    0.9970 C.ar  153  PHE153     -0.0003
    116  CE2       30.7370    4.5920    1.4640 C.ar  153  PHE153     -0.0003
    117  CZ        30.9590    5.9170    1.7690 C.ar  153  PHE153     -0.0000
@<TRIPOS>BOND
     1    99   100    1
     2   101   100    1
     3   101   102    2
     4   100   103    1
     5    91    92    1
     6   103   104    1
     7   104   105    1
     8   104   106    1
     9    92    93    1
    10    92    95    1
    11   110   109    2
    12    93    94    2
    13    98    96    1
    14   109   108    1
    15    83    84    1
    16    85    86    2
    17    85    84    1
    18    96    95    1
    19    96    97    1
    20    75    74    2
    21    84    87    1
    22   111   108    1
    23   111   112    1
    24    74    73    1
    25   108   107    1
    26    81    79   ar
    27    81    82   ar
    28    79    77   ar
    29    73    72    1
    30    73    76    1
    31    87    88    1
    32    82    80   ar
    33    77    76    1
    34    77    78   ar
    35   112   113   ar
    36   112   114   ar
    37   113   115   ar
    38    80    78   ar
    39    88    90    1
    40    88    89    1
    41   114   116   ar
    42    43    41    1
    43   115   117   ar
    44    22    21    1
    45    57    55   am
    46    23    21    1
    47   116   117   ar
    48    21    18    1
    49    55    56    2
    50    55    54    1
    51    41    40    1
    52    41    42    1
    53    68    67    2
    54    18    19    1
    55    18    17    1
    56    37    36    1
    57    37    40    1
    58    37    38    1
    59    20    19    2
    60    67    66    1
    61    54    53    1
    62    19    24   am
    63    38    39    2
    64    70    69    1
    65    66    69    1
    66    66    65    1
    67    24    25    1
    68    53    50    1
    69    69    71    1
    70    16    14    1
    71    44    45    1
    72    45    48    1
    73    45    46    1
    74    25    26    1
    75    25    28    1
    76    27    26    2
    77    12    11    2
    78    50    49    1
    79    50    51    1
    80     9    10    1
    81    10    11    1
    82    10    13    1
    83    14    13    1
    84    14    15    1
    85    46    47    2
    86    28    29    1
    87    51    52    2
    88    51    58   am
    89    58    59    1
    90    30    29   ar
    91    30    32   ar
    92    29    31   ar
    93    64    62    1
    94    59    62    1
    95    59    60    1
    96    32    34   ar
    97    31    33   ar
    98    62    63    1
    99     7     5    1
   100     8     6    1
   101    34    33   ar
   102    34    35    1
   103    60    61    2
   104     6     5    1
   105     4     3    2
   106     5     2    1
   107     2     3    1
   108     2     1    1
