@<TRIPOS>MOLECULE
tmp/1xesA00.pdb
 136 127 0 0 0
SMALL
GASTEIGER

@<TRIPOS>ATOM
      1  N         30.8880   48.1800  108.6710 N.3   130  THR130     -0.1218
      2  CA        29.8940   47.8460  107.6560 C.3   130  THR130      0.1862
      3  C         29.0020   46.6880  108.0980 C.2   130  THR130      0.2287
      4  O         27.8000   46.7010  107.8640 O.2   130  THR130     -0.2866
      5  CB        30.5750   47.5360  106.3180 C.3   130  THR130      0.1770
      6  OG1       31.2850   48.7040  105.8790 O.3   130  THR130     -0.2211
      7  CG2       29.5470   47.1580  105.2640 C.3   130  THR130      0.0375
      8  N         27.1950   51.9320  106.3480 N.3   161  GLY161     -0.1210
      9  CA        28.0670   52.0640  105.1970 C.3   161  GLY161      0.1956
     10  C         29.0260   53.2360  105.1490 C.2   161  GLY161      0.2612
     11  O         29.4210   53.8000  106.1680 O.2   161  GLY161     -0.2717
     12  N         29.3870   53.6140  103.9300 N.am  162  CYS162     -0.1970
     13  CA        30.3610   54.6700  103.7260 C.3   162  CYS162      0.1712
     14  C         30.0690   56.0510  104.2580 C.2   162  CYS162      0.2296
     15  O         30.9950   56.8390  104.4430 O.2   162  CYS162     -0.2864
     16  CB        30.7060   54.7550  102.2510 C.3   162  CYS162      0.0983
     17  SG        31.6180   53.3040  101.7280 S.3   162  CYS162     -0.0798
     18  N         34.0190   42.0640  101.6980 N.3   195  THR195     -0.1218
     19  CA        33.6590   42.3690  100.3090 C.3   195  THR195      0.1862
     20  C         34.5240   41.7570   99.2100 C.2   195  THR195      0.2287
     21  O         34.0810   41.6480   98.0630 O.2   195  THR195     -0.2866
     22  CB        33.6520   43.8830  100.0750 C.3   195  THR195      0.1770
     23  OG1       34.9430   44.4210  100.3990 O.3   195  THR195     -0.2211
     24  CG2       32.5810   44.5490  100.9400 C.3   195  THR195      0.0375
     25  N         38.1690   49.7260   97.4330 N.3   213  PHE213     -0.1241
     26  CA        38.0630   49.4790   98.8710 C.3   213  PHE213      0.1605
     27  C         39.3290   48.9980   99.5740 C.2   213  PHE213      0.2264
     28  O         39.9980   48.0670   99.1190 O.2   213  PHE213     -0.2867
     29  CB        36.9180   48.5030   99.1560 C.3   213  PHE213      0.0534
     30  CG        35.6150   48.8740   98.4880 C.ar  213  PHE213     -0.0203
     31  CD1       35.3970   50.1620   98.0040 C.ar  213  PHE213     -0.0042
     32  CD2       34.6070   47.9320   98.3490 C.ar  213  PHE213     -0.0042
     33  CE1       34.1890   50.4990   97.3880 C.ar  213  PHE213     -0.0003
     34  CE2       33.3990   48.2580   97.7370 C.ar  213  PHE213     -0.0003
     35  CZ        33.1910   49.5440   97.2550 C.ar  213  PHE213     -0.0000
     36  N         23.9520   52.9480   95.3580 N.3   252  ILE252     -0.1231
     37  CA        24.9740   52.3230   96.1950 C.3   252  ILE252      0.1692
     38  C         24.2420   51.3840   97.1480 C.2   252  ILE252      0.2593
     39  O         23.3480   51.8040   97.8760 O.2   252  ILE252     -0.2718
     40  CB        25.7540   53.3790   97.0190 C.3   252  ILE252      0.0266
     41  CG1       26.4070   54.3950   96.0770 C.3   252  ILE252      0.0019
     42  CG2       26.8360   52.6930   97.8600 C.3   252  ILE252      0.0020
     43  CD1       27.1050   55.5340   96.7930 C.3   252  ILE252      0.0001
     44  N         24.5980   50.1080   97.1260 N.am  253  GLY253     -0.1942
     45  CA        23.9220   49.1770   98.0070 C.3   253  GLY253      0.2014
     46  C         24.6730   47.8900   98.2310 C.2   253  GLY253      0.2639
     47  O         25.6380   47.5880   97.5390 O.2   253  GLY253     -0.2714
     48  N         24.2230   47.1340   99.2240 N.am  254  GLY254     -0.1954
     49  CA        24.8620   45.8750   99.5300 C.3   254  GLY254      0.1869
     50  C         23.8510   44.9010  100.0900 C.2   254  GLY254      0.2309
     51  O         22.7710   45.2880  100.5350 O.2   254  GLY254     -0.2863
     52  N         29.0410   39.5880  101.7510 N.3   261  LEU261     -0.1245
     53  CA        28.4620   40.8910  101.4270 C.3   261  LEU261      0.1561
     54  C         28.7050   41.2430   99.9670 C.2   261  LEU261      0.2260
     55  O         29.8480   41.3910   99.5350 O.2   261  LEU261     -0.2867
     56  CB        29.0670   41.9830  102.3170 C.3   261  LEU261      0.0270
     57  CG        28.6030   43.4250  102.0580 C.3   261  LEU261      0.0019
     58  CD1       27.1180   43.5440  102.3200 C.3   261  LEU261      0.0001
     59  CD2       29.3750   44.3890  102.9570 C.3   261  LEU261      0.0001
     60  N         27.8680   43.8900   96.7170 N.3   263  PHE263     -0.1241
     61  CA        27.5190   45.2930   96.5900 C.3   263  PHE263      0.1605
     62  C         27.3060   45.7040   95.1440 C.2   263  PHE263      0.2264
     63  O         27.7970   45.0570   94.2140 O.2   263  PHE263     -0.2867
     64  CB        28.5810   46.1840   97.2410 C.3   263  PHE263      0.0534
     65  CG        29.9510   46.0270   96.6550 C.ar  263  PHE263     -0.0203
     66  CD1       30.8070   45.0300   97.1130 C.ar  263  PHE263     -0.0042
     67  CD2       30.3850   46.8730   95.6380 C.ar  263  PHE263     -0.0042
     68  CE1       32.0790   44.8770   96.5670 C.ar  263  PHE263     -0.0003
     69  CE2       31.6520   46.7290   95.0860 C.ar  263  PHE263     -0.0003
     70  CZ        32.5020   45.7300   95.5500 C.ar  263  PHE263     -0.0000
     71  N         27.1040   49.2740   92.5370 N.3   265  LEU265     -0.1245
     72  CA        27.4860   50.6730   92.3940 C.3   265  LEU265      0.1561
     73  C         27.1090   51.1340   90.9950 C.2   265  LEU265      0.2260
     74  O         27.4520   50.4860   90.0080 O.2   265  LEU265     -0.2867
     75  CB        28.9930   50.8490   92.5990 C.3   265  LEU265      0.0270
     76  CG        29.5980   50.4710   93.9550 C.3   265  LEU265      0.0019
     77  CD1       31.1020   50.7000   93.9150 C.3   265  LEU265      0.0001
     78  CD2       28.9600   51.2950   95.0640 C.3   265  LEU265      0.0001
     79  N         34.2790   62.4250  101.8960 N.3   301  HIS301     -0.1241
     80  CA        34.4560   60.9790  101.7950 C.3   301  HIS301      0.1621
     81  C         34.9630   60.6980  100.3830 C.2   301  HIS301      0.2264
     82  O         34.2840   61.0130   99.4040 O.2   301  HIS301     -0.2867
     83  CB        33.1350   60.2420  102.0030 C.3   301  HIS301      0.0745
     84  CG        33.2330   58.7770  101.7200 C.ar  301  HIS301      0.0817
     85  ND1       34.0710   57.9420  102.4270 N.ar  301  HIS301     -0.2268
     86  CD2       32.6680   58.0150  100.7540 C.ar  301  HIS301      0.1154
     87  CE1       34.0230   56.7300  101.9050 C.ar  301  HIS301      0.1986
     88  NE2       33.1800   56.7470  100.8870 N.ar  301  HIS301     -0.2212
     89  N         34.8880   58.5330   98.0240 N.3   303  GLY303     -0.1225
     90  CA        34.2380   57.3720   97.4390 C.3   303  GLY303      0.1811
     91  C         34.8730   56.9590   96.1300 C.2   303  GLY303      0.2280
     92  O         34.9640   55.7680   95.8040 O.2   303  GLY303     -0.2866
     93  N         33.8560   61.2780   91.9410 N.3   307  ILE307     -0.1245
     94  CA        33.0530   62.0300   92.8970 C.3   307  ILE307      0.1561
     95  C         33.7740   63.3060   93.3190 C.2   307  ILE307      0.2260
     96  O         33.1920   64.3920   93.3070 O.2   307  ILE307     -0.2867
     97  CB        32.7470   61.1950   94.1620 C.3   307  ILE307      0.0252
     98  CG1       31.9210   59.9610   93.7880 C.3   307  ILE307      0.0019
     99  CG2       31.9890   62.0450   95.1730 C.3   307  ILE307      0.0019
    100  CD1       31.6290   59.0310   94.9580 C.3   307  ILE307      0.0001
    101  N         39.6560   53.6450   99.5180 N.3   334  ASN334     -0.1240
    102  CA        38.3560   53.8570  100.1500 C.3   334  ASN334      0.1653
    103  C         38.1530   52.9120  101.3330 C.2   334  ASN334      0.2266
    104  O         37.7830   51.7540  101.1520 O.2   334  ASN334     -0.2867
    105  CB        37.2520   53.6350   99.1090 C.3   334  ASN334      0.1155
    106  CG        35.8680   53.9790   99.6230 C.2   334  ASN334      0.2627
    107  OD1       35.6530   54.1270  100.8210 O.2   334  ASN334     -0.2716
    108  ND2       34.9100   54.0930   98.7020 N.am  334  ASN334     -0.0877
    109  N         35.8600   53.1570  103.5330 N.3   336  SER336     -0.1217
    110  CA        34.4940   53.3720  103.9860 C.3   336  SER336      0.1889
    111  C         34.3960   54.4380  105.0850 C.2   336  SER336      0.2288
    112  O         35.0190   55.4920  104.9880 O.2   336  SER336     -0.2866
    113  CB        33.8880   52.0470  104.4690 C.3   336  SER336      0.2089
    114  OG        32.5030   52.1870  104.7590 O.3   336  SER336     -0.2183
    115  N         29.2480   59.9970  102.2170 N.3   371  PHE371     -0.1227
    116  CA        28.3270   59.5510  101.1640 C.3   371  PHE371      0.1736
    117  C         28.1860   58.0360  101.2480 C.2   371  PHE371      0.2596
    118  O         29.1380   57.3400  101.5860 O.2   371  PHE371     -0.2718
    119  CB        28.8610   59.8740   99.7590 C.3   371  PHE371      0.0547
    120  CG        29.3020   61.2930   99.5750 C.ar  371  PHE371     -0.0202
    121  CD1       28.4450   62.3470   99.8740 C.ar  371  PHE371     -0.0042
    122  CD2       30.5700   61.5750   99.0770 C.ar  371  PHE371     -0.0042
    123  CE1       28.8470   63.6700   99.6800 C.ar  371  PHE371     -0.0003
    124  CE2       30.9830   62.8940   98.8780 C.ar  371  PHE371     -0.0003
    125  CZ        30.1170   63.9410   99.1810 C.ar  371  PHE371     -0.0000
    126  N         27.0080   57.5240  100.9200 N.am  372  GLY372     -0.1943
    127  CA        26.8260   56.0870  100.9600 C.3   372  GLY372      0.1998
    128  C         25.4410   55.6440  100.5480 C.2   372  GLY372      0.2480
    129  O         24.6800   56.4300   99.9900 O.2   372  GLY372     -0.2729
    130  N         25.0830   54.3810  100.8340 N.am  373  PRO373     -0.2726
    131  CA        23.7860   53.7720  100.5110 C.3   373  PRO373      0.1402
    132  C         22.5780   54.6590  100.7990 C.2   373  PRO373      0.2269
    133  O         22.3960   55.1340  101.9210 O.2   373  PRO373     -0.2865
    134  CB        23.7900   52.4960  101.3570 C.3   373  PRO373      0.0296
    135  CG        25.2380   52.1150  101.3530 C.3   373  PRO373      0.0237
    136  CD        25.9340   53.4420  101.5880 C.3   373  PRO373      0.0939
@<TRIPOS>BOND
     1    74    73    2
     2    73    72    1
     3    93    94    1
     4    72    71    1
     5    72    75    1
     6    75    76    1
     7    94    95    1
     8    94    97    1
     9    96    95    2
    10    98    97    1
    11    98   100    1
    12    77    76    1
    13    76    78    1
    14    97    99    1
    15    63    62    2
    16    69    70   ar
    17    69    67   ar
    18    62    61    1
    19    36    37    1
    20    70    68   ar
    21    67    65   ar
    22    92    91    2
    23    41    43    1
    24    41    40    1
    25    91    90    1
    26    37    40    1
    27    37    38    1
    28    68    66   ar
    29    61    60    1
    30    61    64    1
    31    65    66   ar
    32    65    64    1
    33    40    42    1
    34    44    38   am
    35    44    45    1
    36    38    39    2
    37    35    33   ar
    38    35    34   ar
    39    33    31   ar
    40    25    26    1
    41    90    89    1
    42    47    46    2
    43    34    32   ar
    44    31    30   ar
    45    45    46    1
    46    21    20    2
    47    46    48   am
    48    32    30   ar
    49    30    29    1
    50   108   106   am
    51    26    29    1
    52    26    27    1
    53   124   122   ar
    54   124   125   ar
    55   122   120   ar
    56   105   106    1
    57   105   102    1
    58    28    27    2
    59   125   123   ar
    60    20    19    1
    61    48    49    1
    62    82    81    2
    63   101   102    1
    64    49    50    1
    65    55    54    2
    66   120   119    1
    67   120   121   ar
    68   106   107    2
    69   123   121   ar
    70   119   116    1
    71    54    53    1
    72   129   128    2
    73    22    19    1
    74    22    23    1
    75    22    24    1
    76    50    51    2
    77   102   103    1
    78    19    18    1
    79    81    80    1
    80   131   132    1
    81   131   130    1
    82   131   134    1
    83   128   130   am
    84   128   127    1
    85    86    88   ar
    86    86    84   ar
    87   132   133    2
    88   130   136    1
    89    88    87   ar
    90   126   127    1
    91   126   117   am
    92   104   103    2
    93   116   117    1
    94   116   115    1
    95   117   118    2
    96   135   134    1
    97   135   136    1
    98    53    52    1
    99    53    56    1
   100    84    83    1
   101    84    85   ar
   102    17    16    1
   103    80    79    1
   104    80    83    1
   105    87    85   ar
   106    57    56    1
   107    57    58    1
   108    57    59    1
   109    16    13    1
   110   109   110    1
   111    13    12    1
   112    13    14    1
   113    12    10   am
   114   110   113    1
   115   110   111    1
   116    14    15    2
   117   113   114    1
   118   112   111    2
   119    10     9    1
   120    10    11    2
   121     9     8    1
   122     7     5    1
   123     6     5    1
   124     5     2    1
   125     2     3    1
   126     2     1    1
   127     4     3    2
