@<TRIPOS>MOLECULE
tmp/1xetD01.pdb
 190 179 0 0 0
SMALL
GASTEIGER

@<TRIPOS>ATOM
      1  N         13.9440   62.7730   79.0990 N.3    48  LYS48      -0.1245
      2  CA        14.5370   63.3570   77.9080 C.3    48  LYS48       0.1561
      3  C         14.2550   62.4170   76.7370 C.2    48  LYS48       0.2260
      4  O         14.2280   62.8390   75.5800 O.2    48  LYS48      -0.2867
      5  CB        16.0420   63.5690   78.0970 C.3    48  LYS48       0.0271
      6  CG        16.9440   62.6270   77.3290 C.3    48  LYS48       0.0035
      7  CD        18.2240   63.3430   76.9070 C.3    48  LYS48       0.0206
      8  CE        18.9010   64.0360   78.0840 C.3    48  LYS48       0.1093
      9  NZ        19.9200   65.0330   77.6420 N.3    48  LYS48      -0.1314
     10  N         11.0710   63.4910   75.2470 N.3    51  ARG51      -0.1231
     11  CA        11.2710   64.6290   74.3600 C.3    51  ARG51       0.1694
     12  C         11.6800   64.1110   72.9800 C.2    51  ARG51       0.2591
     13  O         11.0750   64.4570   71.9650 O.2    51  ARG51      -0.2718
     14  CB        12.3710   65.5430   74.9120 C.3    51  ARG51       0.0321
     15  CG        11.8920   66.9240   75.3570 C.3    51  ARG51       0.0489
     16  CD        12.1850   67.1640   76.8320 C.3    51  ARG51       0.2205
     17  NE        13.6110   67.0740   77.1410 N.pl3  51  ARG51      -0.0865
     18  CZ        14.0890   66.8620   78.3640 C.cat  51  ARG51       0.5346
     19  NH1       15.3950   66.7910   78.5640 N.pl3  51  ARG51       0.1354
     20  NH2       13.2560   66.7110   79.3880 N.pl3  51  ARG51       0.1354
     21  N         12.7080   63.2680   72.9600 N.am   52  ILE52      -0.1980
     22  CA        13.2170   62.6980   71.7190 C.3    52  ILE52       0.1595
     23  C         12.1460   61.9690   70.9070 C.2    52  ILE52       0.2287
     24  O         12.0390   62.1810   69.7000 O.2    52  ILE52      -0.2864
     25  CB        14.4050   61.7470   72.0120 C.3    52  ILE52       0.0276
     26  CG1       15.5610   62.5650   72.6010 C.3    52  ILE52       0.0022
     27  CG2       14.8430   61.0200   70.7390 C.3    52  ILE52       0.0022
     28  CD1       16.7730   61.7550   72.9860 C.3    52  ILE52       0.0001
     29  N          9.5940   64.3230   69.3220 N.3    55  ARG55      -0.1231
     30  CA        10.1500   65.1250   68.2350 C.3    55  ARG55       0.1694
     31  C         10.5940   64.3020   67.0220 C.2    55  ARG55       0.2592
     32  O         10.9610   64.8630   65.9900 O.2    55  ARG55      -0.2718
     33  CB        11.3270   65.9460   68.7580 C.3    55  ARG55       0.0321
     34  CG        10.9050   67.1060   69.6800 C.3    55  ARG55       0.0489
     35  CD        12.1060   67.9290   70.1140 C.3    55  ARG55       0.2205
     36  NE        13.0650   67.1200   70.8690 N.pl3  55  ARG55      -0.0865
     37  CZ        14.3070   66.8280   70.4870 C.cat  55  ARG55       0.5346
     38  NH1       14.8110   67.3290   69.3630 N.pl3  55  ARG55       0.1354
     39  NH2       15.0640   66.0690   71.2590 N.pl3  55  ARG55       0.1354
     40  N         10.5510   62.9800   67.1430 N.am   56  SER56      -0.1952
     41  CA        10.9780   62.0950   66.0610 C.3    56  SER56       0.1924
     42  C         10.0800   62.1100   64.8290 C.2    56  SER56       0.2314
     43  O         10.5200   61.7520   63.7350 O.2    56  SER56      -0.2863
     44  CB        11.0840   60.6610   66.5800 C.3    56  SER56       0.2116
     45  OG         9.8160   60.1810   66.9950 O.3    56  SER56      -0.2180
     46  N         23.1940   52.4580   57.1440 N.3   158  CYS158     -0.1235
     47  CA        21.9780   53.0260   56.5840 C.3   158  CYS158      0.1677
     48  C         22.0620   53.5560   55.1620 C.2   158  CYS158      0.2270
     49  O         21.0300   53.8160   54.5480 O.2   158  CYS158     -0.2867
     50  CB        21.4540   54.1180   57.5080 C.3   158  CYS158      0.0956
     51  SG        20.9540   53.4840   59.1180 S.3   158  CYS158     -0.0801
     52  N         24.0210   59.2230   75.5090 N.3   200  LEU200     -0.1231
     53  CA        22.7400   59.7360   75.0550 C.3   200  LEU200      0.1693
     54  C         22.4690   59.5520   73.5680 C.2   200  LEU200      0.2592
     55  O         21.3130   59.5810   73.1400 O.2   200  LEU200     -0.2718
     56  CB        22.6150   61.2120   75.4510 C.3   200  LEU200      0.0284
     57  CG        22.6410   61.4620   76.9680 C.3   200  LEU200      0.0019
     58  CD1       22.5290   62.9610   77.2630 C.3   200  LEU200      0.0001
     59  CD2       21.5010   60.6950   77.6330 C.3   200  LEU200      0.0001
     60  N         23.5170   59.3790   72.7720 N.am  201  ASP201     -0.1974
     61  CA        23.3000   59.1580   71.3470 C.3   201  ASP201      0.1709
     62  C         22.6760   57.7700   71.1790 C.2   201  ASP201      0.2293
     63  O         21.8260   57.5550   70.3080 O.2   201  ASP201     -0.2864
     64  CB        24.6130   59.2620   70.5520 C.3   201  ASP201      0.1436
     65  CG        25.7480   58.4580   71.1620 C.2   201  ASP201      0.3671
     66  OD1       26.7880   58.3080   70.4840 O.co2 201  ASP201     -0.2456
     67  OD2       25.6190   57.9850   72.3100 O.co2 201  ASP201     -0.2456
     68  N         19.1630   58.1470   71.6050 N.3   204  VAL204     -0.1245
     69  CA        18.4830   58.6530   70.4120 C.3   204  VAL204      0.1561
     70  C         18.1320   57.4970   69.4710 C.2   204  VAL204      0.2260
     71  O         17.0310   57.4420   68.9230 O.2   204  VAL204     -0.2867
     72  CB        19.3570   59.6810   69.6520 C.3   204  VAL204      0.0252
     73  CG1       18.7530   59.9760   68.2830 C.3   204  VAL204      0.0019
     74  CG2       19.4590   60.9690   70.4610 C.3   204  VAL204      0.0019
     75  N         14.5190   56.0600   67.3880 N.3   208  LEU208     -0.1231
     76  CA        14.3480   56.1020   65.9330 C.3   208  LEU208      0.1693
     77  C         14.3020   54.7900   65.1510 C.2   208  LEU208      0.2592
     78  O         13.4970   54.6440   64.2350 O.2   208  LEU208     -0.2718
     79  CB        15.4470   56.9700   65.3160 C.3   208  LEU208      0.0284
     80  CG        15.7580   58.3100   65.9940 C.3   208  LEU208      0.0019
     81  CD1       16.7480   59.0740   65.1390 C.3   208  LEU208      0.0001
     82  CD2       14.4810   59.1140   66.1770 C.3   208  LEU208      0.0001
     83  N         15.1690   53.8450   65.4950 N.am  209  PHE209     -0.1976
     84  CA        15.2370   52.5870   64.7570 C.3   209  PHE209      0.1639
     85  C         14.0960   51.6050   64.9250 C.2   209  PHE209      0.2290
     86  O         13.6530   51.3240   66.0370 O.2   209  PHE209     -0.2864
     87  CB        16.5510   51.8770   65.0630 C.3   209  PHE209      0.0560
     88  CG        17.7570   52.7290   64.8200 C.ar  209  PHE209     -0.0200
     89  CD1       17.9160   53.3970   63.6120 C.ar  209  PHE209     -0.0042
     90  CD2       18.7260   52.8840   65.8070 C.ar  209  PHE209     -0.0042
     91  CE1       19.0250   54.2150   63.3950 C.ar  209  PHE209     -0.0003
     92  CE2       19.8350   53.6940   65.5970 C.ar  209  PHE209     -0.0003
     93  CZ        19.9860   54.3600   64.3970 C.ar  209  PHE209     -0.0000
     94  N         28.7290   59.0530   62.5380 N.3   248  ILE248     -0.1245
     95  CA        27.7990   57.9250   62.5440 C.3   248  ILE248      0.1561
     96  C         28.6590   56.6670   62.5660 C.2   248  ILE248      0.2260
     97  O         29.4630   56.4460   61.6620 O.2   248  ILE248     -0.2867
     98  CB        26.9230   57.8630   61.2750 C.3   248  ILE248      0.0252
     99  CG1       26.1820   59.1810   61.0630 C.3   248  ILE248      0.0019
    100  CG2       25.9180   56.7300   61.4090 C.3   248  ILE248      0.0019
    101  CD1       25.3830   59.2200   59.7680 C.3   248  ILE248      0.0001
    102  N         26.4510   58.3800   67.4930 N.3   261  LEU261     -0.1231
    103  CA        25.7400   59.3580   66.6810 C.3   261  LEU261      0.1693
    104  C         25.9700   60.7760   67.2050 C.2   261  LEU261      0.2592
    105  O         25.4280   61.1590   68.2390 O.2   261  LEU261     -0.2718
    106  CB        24.2460   59.0340   66.6870 C.3   261  LEU261      0.0284
    107  CG        23.3450   59.9170   65.8220 C.3   261  LEU261      0.0019
    108  CD1       23.8260   59.8850   64.3720 C.3   261  LEU261      0.0001
    109  CD2       21.9100   59.4220   65.9230 C.3   261  LEU261      0.0001
    110  N         26.7690   61.5530   66.4790 N.am  262  LYS262     -0.1966
    111  CA        27.0770   62.9200   66.8830 C.3   262  LYS262      0.1728
    112  C         25.9890   63.9160   66.5080 C.2   262  LYS262      0.2616
    113  O         25.2840   63.7440   65.5130 O.2   262  LYS262     -0.2715
    114  CB        28.4220   63.3550   66.2860 C.3   262  LYS262      0.0311
    115  CG        29.6150   62.6020   66.8710 C.3   262  LYS262      0.0038
    116  CD        30.9390   63.1380   66.3400 C.3   262  LYS262      0.0206
    117  CE        32.1210   62.4190   66.9770 C.3   262  LYS262      0.1093
    118  NZ        33.4310   62.8760   66.4220 N.3   262  LYS262     -0.1314
    119  N         25.8560   64.9640   67.3160 N.am  263  GLY263     -0.1955
    120  CA        24.8420   65.9690   67.0530 C.3   263  GLY263      0.1869
    121  C         25.0840   66.7800   65.7930 C.2   263  GLY263      0.2309
    122  O         24.1790   67.4550   65.3030 O.2   263  GLY263     -0.2863
    123  N         25.5950   65.6240   62.8560 N.3   265  VAL265     -0.1231
    124  CA        25.1080   64.9360   61.6590 C.3   265  VAL265      0.1678
    125  C         24.2100   65.8140   60.7950 C.2   265  VAL265      0.2434
    126  O         24.3900   65.8860   59.5770 O.2   265  VAL265     -0.2733
    127  CB        24.3570   63.6290   62.0190 C.3   265  VAL265      0.0265
    128  CG1       23.7600   63.0070   60.7640 C.3   265  VAL265      0.0020
    129  CG2       25.3180   62.6530   62.6830 C.3   265  VAL265      0.0020
    130  N         23.2230   66.4870   61.4070 N.am  266  PRO266     -0.2729
    131  CA        22.3280   67.3520   60.6300 C.3   266  PRO266      0.1401
    132  C         23.1120   68.4110   59.8470 C.2   266  PRO266      0.2269
    133  O         22.8870   68.6090   58.6550 O.2   266  PRO266     -0.2865
    134  CB        21.4300   67.9610   61.7020 C.3   266  PRO266      0.0296
    135  CG        21.3250   66.8350   62.7030 C.3   266  PRO266      0.0237
    136  CD        22.7550   66.3660   62.8020 C.3   266  PRO266      0.0939
    137  N         16.9100   59.0270   52.7820 N.3   297  HIS297     -0.1241
    138  CA        16.9650   58.1610   53.9480 C.3   297  HIS297      0.1621
    139  C         16.5360   59.0160   55.1440 C.2   297  HIS297      0.2264
    140  O         17.1520   60.0380   55.4380 O.2   297  HIS297     -0.2867
    141  CB        18.3810   57.6340   54.1660 C.3   297  HIS297      0.0745
    142  CG        18.5490   56.9010   55.4610 C.ar  297  HIS297      0.0817
    143  ND1       17.8740   55.7340   55.7490 N.ar  297  HIS297     -0.2268
    144  CD2       19.2780   57.1970   56.5640 C.ar  297  HIS297      0.1154
    145  CE1       18.1780   55.3440   56.9750 C.ar  297  HIS297      0.1986
    146  NE2       19.0270   56.2140   57.4900 N.ar  297  HIS297     -0.2212
    147  N         16.9890   59.3490   58.3220 N.3   299  GLY299     -0.1210
    148  CA        17.7970   59.0920   59.5020 C.3   299  GLY299      0.1956
    149  C         17.2580   59.7550   60.7550 C.2   299  GLY299      0.2612
    150  O         17.3400   59.2040   61.8520 O.2   299  GLY299     -0.2717
    151  N         16.7110   60.9520   60.5840 N.am  300  GLY300     -0.1942
    152  CA        16.1520   61.6960   61.6990 C.3   300  GLY300      0.2014
    153  C         15.3900   62.8780   61.1360 C.2   300  GLY300      0.2639
    154  O         15.7550   63.3970   60.0830 O.2   300  GLY300     -0.2714
    155  N         14.3330   63.3050   61.8220 N.am  301  ARG301     -0.1963
    156  CA        13.5260   64.4290   61.3580 C.3   301  ARG301      0.1729
    157  C         14.3780   65.6720   61.0940 C.2   301  ARG301      0.2616
    158  O         14.1760   66.3780   60.1020 O.2   301  ARG301     -0.2715
    159  CB        12.4460   64.7760   62.3940 C.3   301  ARG301      0.0348
    160  CG        11.3240   65.6530   61.8440 C.3   301  ARG301      0.0492
    161  CD        10.8520   66.7110   62.8520 C.3   301  ARG301      0.2205
    162  NE        11.8680   67.7400   63.0850 N.pl3 301  ARG301     -0.0865
    163  CZ        12.6630   67.7970   64.1500 C.cat 301  ARG301      0.5346
    164  NH1       12.5720   66.8840   65.1090 N.pl3 301  ARG301      0.1354
    165  NH2       13.5580   68.7700   64.2560 N.pl3 301  ARG301      0.1354
    166  N         15.3350   65.9330   61.9810 N.am  302  ALA302     -0.1963
    167  CA        16.1950   67.1080   61.8480 C.3   302  ALA302      0.1728
    168  C         16.9590   67.1340   60.5310 C.2   302  ALA302      0.2616
    169  O         17.0730   68.1810   59.8920 O.2   302  ALA302     -0.2715
    170  CB        17.1690   67.1830   63.0200 C.3   302  ALA302      0.0334
    171  N         17.4790   65.9810   60.1230 N.am  303  ILE303     -0.1977
    172  CA        18.2270   65.8950   58.8750 C.3   303  ILE303      0.1596
    173  C         17.3330   66.2550   57.6910 C.2   303  ILE303      0.2287
    174  O         17.7640   66.9370   56.7590 O.2   303  ILE303     -0.2864
    175  CB        18.7880   64.4800   58.6640 C.3   303  ILE303      0.0276
    176  CG1       19.7230   64.1140   59.8210 C.3   303  ILE303      0.0022
    177  CG2       19.5130   64.4110   57.3350 C.3   303  ILE303      0.0022
    178  CD1       20.1980   62.6790   59.7930 C.3   303  ILE303      0.0001
    179  N         12.9840   54.6370   61.4960 N.3   330  ASN330     -0.1240
    180  CA        14.2320   54.3930   60.7760 C.3   330  ASN330      0.1653
    181  C         14.5330   52.8960   60.6510 C.2   330  ASN330      0.2266
    182  O         15.0860   52.2930   61.5700 O.2   330  ASN330     -0.2867
    183  CB        15.3870   55.0910   61.4990 C.3   330  ASN330      0.1155
    184  CG        16.6840   55.0540   60.7100 C.2   330  ASN330      0.2627
    185  OD1       16.8770   54.2030   59.8440 O.2   330  ASN330     -0.2716
    186  ND2       17.5870   55.9780   61.0190 N.am  330  ASN330     -0.0877
    187  N         24.9900   57.3920   56.0280 N.3   368  GLY368     -0.1225
    188  CA        25.4620   56.4090   56.9830 C.3   368  GLY368      0.1811
    189  C         26.9000   56.6050   57.4140 C.2   368  GLY368      0.2280
    190  O         27.4920   57.6540   57.1390 O.2   368  GLY368     -0.2866
@<TRIPOS>BOND
     1   137   138    1
     2   138   141    1
     3   138   139    1
     4   141   142    1
     5    49    48    2
     6   139   140    2
     7    48    47    1
     8   142   143   ar
     9   142   144   ar
    10   143   145   ar
    11   187   188    1
    12   144   146   ar
    13    47    46    1
    14    47    50    1
    15   174   173    2
    16   145   146   ar
    17   188   189    1
    18   190   189    2
    19   177   175    1
    20    50    51    1
    21   173   172    1
    22   147   148    1
    23   133   132    2
    24   175   172    1
    25   175   176    1
    26   172   171    1
    27   148   149    1
    28   126   125    2
    29   101    99    1
    30   178   176    1
    31   185   184    2
    32   132   131    1
    33   169   168    2
    34   154   153    2
    35   158   157    2
    36   171   168   am
    37   168   167    1
    38   151   149   am
    39   151   152    1
    40   131   130    1
    41   131   134    1
    42   181   180    1
    43   181   182    2
    44   184   186   am
    45   184   183    1
    46   149   150    2
    47   128   127    1
    48   180   179    1
    49   180   183    1
    50   125   130   am
    51   125   124    1
    52    99    98    1
    53   157   156    1
    54   157   166   am
    55   153   152    1
    56   153   155   am
    57    98   100    1
    58    98    95    1
    59   156   155    1
    60   156   159    1
    61   130   136    1
    62   124   127    1
    63   124   123    1
    64    97    96    2
    65   134   135    1
    66   160   159    1
    67   160   161    1
    68   167   166    1
    69   167   170    1
    70   127   129    1
    71    94    95    1
    72    95    96    1
    73   135   136    1
    74   161   162    1
    75   162   163    2
    76    91    89   ar
    77    91    93   ar
    78    89    88   ar
    79    43    42    2
    80   163   165    1
    81   163   164    1
    82    78    77    2
    83   108   107    1
    84    93    92   ar
    85    84    85    1
    86    84    87    1
    87    84    83    1
    88    88    87    1
    89    88    90   ar
    90    42    41    1
    91    85    86    2
    92    81    80    1
    93    77    83   am
    94    77    76    1
    95   122   121    2
    96    79    76    1
    97    79    80    1
    98   113   112    2
    99    92    90   ar
   100   121   120    1
   101   107   109    1
   102   107   106    1
   103    76    75    1
   104    32    31    2
   105    80    82    1
   106    41    44    1
   107    41    40    1
   108   114   115    1
   109   114   111    1
   110   116   115    1
   111   116   117    1
   112   118   117    1
   113   110   111    1
   114   110   104   am
   115   112   111    1
   116   112   119   am
   117    44    45    1
   118   103   106    1
   119   103   104    1
   120   103   102    1
   121    31    40   am
   122    31    30    1
   123   120   119    1
   124   104   105    2
   125    30    33    1
   126    30    29    1
   127    73    72    1
   128    33    34    1
   129    71    70    2
   130    38    37    1
   131    70    69    1
   132    72    69    1
   133    72    74    1
   134    34    35    1
   135    24    23    2
   136    35    36    1
   137    63    62    2
   138    69    68    1
   139    66    65   ar
   140    37    36    2
   141    37    39    1
   142    64    65    1
   143    64    61    1
   144    27    25    1
   145    23    22    1
   146    65    67   ar
   147    62    61    1
   148    61    60    1
   149    22    25    1
   150    22    21    1
   151    13    12    2
   152    25    26    1
   153    26    28    1
   154    60    54   am
   155    21    12   am
   156    12    11    1
   157    55    54    2
   158    54    53    1
   159    11    14    1
   160    11    10    1
   161    14    15    1
   162    53    56    1
   163    53    52    1
   164    15    16    1
   165    56    57    1
   166     4     3    2
   167     3     2    1
   168    16    17    1
   169     7     6    1
   170     7     8    1
   171    57    58    1
   172    57    59    1
   173    17    18    2
   174     6     5    1
   175     9     8    1
   176     2     5    1
   177     2     1    1
   178    18    19    1
   179    18    20    1
