@<TRIPOS>MOLECULE
tmp/1xexA00.pdb
 112 107 0 0 0
SMALL
GASTEIGER

@<TRIPOS>ATOM
      1  N         87.2730  -73.3690   -8.5320 N.3    12  LYS12      -0.1231
      2  CA        86.1120  -72.6610   -9.0770 C.3    12  LYS12       0.1693
      3  C         86.5250  -71.5390  -10.0360 C.2    12  LYS12       0.2592
      4  O         87.2420  -71.8090  -10.9850 O.2    12  LYS12      -0.2718
      5  CB        85.2100  -72.1620   -7.9390 C.3    12  LYS12       0.0285
      6  CG        84.7480  -73.3250   -7.0540 C.3    12  LYS12       0.0035
      7  CD        83.6350  -72.9680   -6.0700 C.3    12  LYS12       0.0206
      8  CE        82.3490  -72.6470   -6.7900 C.3    12  LYS12       0.1093
      9  NZ        81.1880  -72.6590   -5.8620 N.3    12  LYS12      -0.1314
     10  N         86.1040  -70.3000   -9.8090 N.am   13  SER13      -0.1952
     11  CA        86.4570  -69.2270  -10.7520 C.3    13  SER13       0.1924
     12  C         87.9060  -68.7350  -10.7360 C.2    13  SER13       0.2314
     13  O         88.2540  -67.8380  -11.5060 O.2    13  SER13      -0.2863
     14  CB        85.5480  -68.0090  -10.5620 C.3    13  SER13       0.2116
     15  OG        85.7360  -67.4220   -9.2850 O.3    13  SER13      -0.2180
     16  N         78.7300  -58.2880   -8.6980 N.3    34  ASN34      -0.1225
     17  CA        77.9810  -59.5430   -8.6050 C.3    34  ASN34       0.1785
     18  C         78.6090  -60.5320   -9.6110 C.2    34  ASN34       0.2598
     19  O         78.9350  -60.1580  -10.7620 O.2    34  ASN34      -0.2718
     20  CB        76.5030  -59.3290   -8.9810 C.3    34  ASN34       0.1169
     21  CG        75.7100  -58.5780   -7.9120 C.2    34  ASN34       0.2627
     22  OD1       74.9640  -57.6500   -8.2240 O.2    34  ASN34      -0.2716
     23  ND2       75.8430  -59.0040   -6.6550 N.am   34  ASN34      -0.0877
     24  N         78.7600  -61.7830   -9.1750 N.am   35  GLY35      -0.1942
     25  CA        79.3170  -62.8420  -10.0180 C.3    35  GLY35       0.2014
     26  C         80.8170  -62.7800  -10.2760 C.2    35  GLY35       0.2640
     27  O         81.2990  -63.3640  -11.2560 O.2    35  GLY35      -0.2714
     28  N         81.5570  -62.0810   -9.4140 N.am   36  SER36      -0.1935
     29  CA        82.9930  -61.9300   -9.5890 C.3    36  SER36       0.2055
     30  C         83.8000  -62.9960   -8.8790 C.2    36  SER36       0.2644
     31  O         84.9430  -63.2340   -9.2430 O.2    36  SER36      -0.2714
     32  CB        83.4720  -60.5380   -9.1320 C.3    36  SER36       0.2130
     33  OG        83.2310  -60.2910   -7.7480 O.3    36  SER36      -0.2179
     34  N         83.2160  -63.6410   -7.8770 N.am   37  GLY37      -0.1939
     35  CA        83.9500  -64.6730   -7.1740 C.3    37  GLY37       0.2014
     36  C         84.1180  -64.4640   -5.6760 C.2    37  GLY37       0.2639
     37  O         84.9990  -65.0610   -5.0700 O.2    37  GLY37      -0.2714
     38  N         83.2680  -63.6370   -5.0760 N.am   38  LYS38      -0.1963
     39  CA        83.3390  -63.3750   -3.6490 C.3    38  LYS38       0.1728
     40  C         82.9430  -64.6120   -2.8390 C.2    38  LYS38       0.2617
     41  O         83.6940  -65.0570   -1.9840 O.2    38  LYS38      -0.2715
     42  CB        82.4330  -62.1880   -3.2910 C.3    38  LYS38       0.0311
     43  CG        82.9230  -60.8750   -3.8520 C.3    38  LYS38       0.0038
     44  CD        81.9650  -59.7320   -3.5870 C.3    38  LYS38       0.0206
     45  CE        80.7970  -59.7890   -4.5490 C.3    38  LYS38       0.1093
     46  NZ        79.8320  -60.7680   -4.0860 N.3    38  LYS38      -0.1314
     47  N         81.7640  -65.1640   -3.0980 N.am   39  SER39      -0.1936
     48  CA        81.3290  -66.3620   -2.3670 C.3    39  SER39       0.2055
     49  C         82.2420  -67.5790   -2.5900 C.2    39  SER39       0.2643
     50  O         82.3690  -68.4240   -1.7070 O.2    39  SER39      -0.2714
     51  CB        79.8840  -66.7370   -2.7410 C.3    39  SER39       0.2130
     52  OG        78.9850  -65.7340   -2.3150 O.3    39  SER39      -0.2179
     53  N         82.8600  -67.6680   -3.7660 N.am   40  ASN40      -0.1971
     54  CA        83.7640  -68.7730   -4.0500 C.3    40  ASN40       0.1688
     55  C         84.9200  -68.8160   -3.0430 C.2    40  ASN40       0.2292
     56  O         85.4790  -69.8930   -2.7620 O.2    40  ASN40      -0.2864
     57  CB        84.3190  -68.6700   -5.4710 C.3    40  ASN40       0.1181
     58  CG        83.2590  -68.9040   -6.5310 C.2    40  ASN40       0.2629
     59  OD1       82.1650  -69.3940   -6.2390 O.2    40  ASN40      -0.2716
     60  ND2       83.5800  -68.5550   -7.7760 N.am   40  ASN40      -0.0877
     61  N         77.4840  -75.2500   -3.7810 N.3    58  ARG58      -0.1245
     62  CA        76.7760  -75.1170   -5.0550 C.3    58  ARG58       0.1563
     63  C         77.4530  -75.8090   -6.2510 C.2    58  ARG58       0.2260
     64  O         77.7290  -75.1910   -7.2850 O.2    58  ARG58      -0.2867
     65  CB        76.5490  -73.6330   -5.3520 C.3    58  ARG58       0.0307
     66  CG        76.3470  -72.7840   -4.0930 C.3    58  ARG58       0.0489
     67  CD        76.2580  -71.3090   -4.4590 C.3    58  ARG58       0.2205
     68  NE        77.5220  -70.6180   -4.2100 N.pl3  58  ARG58      -0.0865
     69  CZ        78.1630  -69.8470   -5.0830 C.cat  58  ARG58       0.5346
     70  NH1       77.5560  -69.3890   -6.1680 N.pl3  58  ARG58       0.1354
     71  NH2       79.4260  -69.5240   -4.8540 N.pl3  58  ARG58       0.1354
     72  N         82.9850  -80.6330   -9.9030 N.3    64  ASP64      -0.1239
     73  CA        82.6300  -79.3780  -10.5680 C.3    64  ASP64       0.1674
     74  C         83.2620  -78.1540   -9.9090 C.2    64  ASP64       0.2266
     75  O         83.0820  -77.0320  -10.3740 O.2    64  ASP64      -0.2867
     76  CB        81.1080  -79.2060  -10.6240 C.3    64  ASP64       0.1410
     77  CG        80.4350  -80.2470  -11.5210 C.2    64  ASP64       0.3668
     78  OD1       80.9610  -80.5040  -12.6340 O.co2  64  ASP64      -0.2456
     79  OD2       79.3800  -80.8020  -11.1190 O.co2  64  ASP64      -0.2456
     80  N         86.3050  -77.8060   -9.8610 N.3    66  ILE66      -0.1231
     81  CA        87.5260  -77.6140  -10.6270 C.3    66  ILE66       0.1692
     82  C         87.2910  -76.5430  -11.6870 C.2    66  ILE66       0.2592
     83  O         86.2470  -76.5130  -12.3300 O.2    66  ILE66      -0.2718
     84  CB        87.9790  -78.9280  -11.2970 C.3    66  ILE66       0.0266
     85  CG1       88.2080  -80.0050  -10.2270 C.3    66  ILE66       0.0019
     86  CG2       89.2530  -78.6890  -12.0920 C.3    66  ILE66       0.0020
     87  CD1       88.5220  -81.3770  -10.7950 C.3    66  ILE66       0.0001
     88  N         88.2720  -75.6620  -11.8490 N.am   67  PHE67      -0.1962
     89  CA        88.1940  -74.5610  -12.7980 C.3    67  PHE67       0.1771
     90  C         87.8370  -74.9670  -14.2270 C.2    67  PHE67       0.2619
     91  O         88.5390  -75.7540  -14.8530 O.2    67  PHE67      -0.2715
     92  CB        89.5140  -73.8040  -12.8030 C.3    67  PHE67       0.0574
     93  CG        89.5860  -72.7240  -13.8460 C.ar   67  PHE67      -0.0200
     94  CD1       88.7990  -71.5770  -13.7330 C.ar   67  PHE67      -0.0042
     95  CD2       90.4360  -72.8590  -14.9440 C.ar   67  PHE67      -0.0042
     96  CE1       88.8590  -70.5810  -14.6960 C.ar   67  PHE67      -0.0003
     97  CE2       90.5050  -71.8720  -15.9150 C.ar   67  PHE67      -0.0003
     98  CZ        89.7180  -70.7270  -15.7990 C.ar   67  PHE67      -0.0000
     99  N         86.7550  -74.3890  -14.7360 N.am   68  ALA68      -0.1977
    100  CA        86.2550  -74.6700  -16.0770 C.3    68  ALA68       0.1597
    101  C         86.9090  -73.8090  -17.1410 C.2    68  ALA68       0.2287
    102  O         86.8830  -72.5790  -17.0680 O.2    68  ALA68      -0.2864
    103  CB        84.7460  -74.4690  -16.1230 C.3    68  ALA68       0.0319
    104  N         75.6130  -67.3040    2.0180 N.3   144  GLN144     -0.1245
    105  CA        74.6840  -66.4550    1.2740 C.3   144  GLN144      0.1566
    106  C         73.3490  -67.2050    1.2960 C.2   144  GLN144      0.2260
    107  O         73.2590  -68.3330    0.7990 O.2   144  GLN144     -0.2867
    108  CB        75.1800  -66.2740   -0.1780 C.3   144  GLN144      0.0367
    109  CG        74.3490  -65.2870   -1.0440 C.3   144  GLN144      0.0905
    110  CD        75.1580  -64.6720   -2.1990 C.2   144  GLN144      0.2608
    111  OE1       76.3480  -64.9760   -2.3800 O.2   144  GLN144     -0.2717
    112  NE2       74.5160  -63.8040   -2.9760 N.am  144  GLN144     -0.0878
@<TRIPOS>BOND
     1   101   102    2
     2   101   100    1
     3   103   100    1
     4   100    99    1
     5    97    98   ar
     6    97    95   ar
     7    98    96   ar
     8    95    93   ar
     9    91    90    2
    10    99    90   am
    11    96    94   ar
    12    90    89    1
    13    93    94   ar
    14    93    92    1
    15    92    89    1
    16    89    88    1
    17    78    77   ar
    18    83    82    2
    19    86    84    1
    20    88    82   am
    21    82    81    1
    22    77    79   ar
    23    77    76    1
    24    13    12    2
    25    84    81    1
    26    84    85    1
    27    27    26    2
    28     4     3    2
    29    87    85    1
    30    19    18    2
    31    11    12    1
    32    11    14    1
    33    11    10    1
    34    81    80    1
    35    76    73    1
    36    73    74    1
    37    73    72    1
    38    14    15    1
    39    75    74    2
    40    26    25    1
    41    26    28   am
    42     3    10   am
    43     3     2    1
    44    25    24    1
    45    18    24   am
    46    18    17    1
    47    29    28    1
    48    29    32    1
    49    29    30    1
    50    31    30    2
    51    32    33    1
    52     2     1    1
    53     2     5    1
    54    20    17    1
    55    20    21    1
    56    30    34   am
    57    16    17    1
    58    22    21    2
    59     5     6    1
    60    21    23   am
    61    34    35    1
    62    60    58   am
    63    64    63    2
    64    35    36    1
    65     6     7    1
    66     8     7    1
    67     8     9    1
    68    58    59    2
    69    58    57    1
    70    63    62    1
    71    70    69    1
    72    36    38   am
    73    36    37    2
    74    57    54    1
    75    65    62    1
    76    65    66    1
    77    69    71    1
    78    69    68    2
    79    38    39    1
    80    62    61    1
    81    45    46    1
    82    45    44    1
    83    67    68    1
    84    67    66    1
    85    54    53    1
    86    54    55    1
    87    43    44    1
    88    43    42    1
    89    53    49   am
    90    39    42    1
    91    39    40    1
    92    47    40   am
    93    47    48    1
    94    55    56    2
    95   112   110   am
    96    40    41    2
    97    51    48    1
    98    51    52    1
    99    49    48    1
   100    49    50    2
   101   111   110    2
   102   110   109    1
   103   109   108    1
   104   108   105    1
   105   107   106    2
   106   105   106    1
   107   105   104    1
