@<TRIPOS>MOLECULE
tmp/1xezA00.pdb
 87 85 0 0 0
SMALL
GASTEIGER

@<TRIPOS>ATOM
      1  N         51.3940   91.1630   48.4500 N.3   560  GLY560     -0.1210
      2  CA        51.7550   91.1040   49.8530 C.3   560  GLY560      0.1956
      3  C         53.0950   91.7950   49.9870 C.2   560  GLY560      0.2612
      4  O         53.1740   93.0100   49.8440 O.2   560  GLY560     -0.2717
      5  N         54.1510   91.0290   50.2480 N.am  561  ALA561     -0.1965
      6  CA        55.4910   91.5980   50.3710 C.3   561  ALA561      0.1728
      7  C         56.0060   91.9500   48.9800 C.2   561  ALA561      0.2616
      8  O         57.0160   92.6460   48.8300 O.2   561  ALA561     -0.2715
      9  CB        56.4380   90.6060   51.0450 C.3   561  ALA561      0.0334
     10  N         55.3120   91.4510   47.9630 N.am  562  ALA562     -0.1977
     11  CA        55.6720   91.7220   46.5760 C.3   562  ALA562      0.1597
     12  C         54.3840   91.6650   45.7550 C.2   562  ALA562      0.2287
     13  O         53.2880   91.7160   46.3210 O.2   562  ALA562     -0.2864
     14  CB        56.6860   90.6870   46.0760 C.3   562  ALA562      0.0319
     15  N         52.2140   89.3290   43.5730 N.3   564  ASP564     -0.1239
     16  CA        51.9240   87.9660   43.1380 C.3   564  ASP564      0.1674
     17  C         51.2670   87.8910   41.7660 C.2   564  ASP564      0.2266
     18  O         51.6590   87.0660   40.9330 O.2   564  ASP564     -0.2867
     19  CB        51.0320   87.2700   44.1750 C.3   564  ASP564      0.1410
     20  CG        51.6650   87.2380   45.5530 C.2   564  ASP564      0.3668
     21  OD1       52.3840   86.2670   45.8670 O.co2 564  ASP564     -0.2456
     22  OD2       51.4610   88.2010   46.3200 O.co2 564  ASP564     -0.2456
     23  N         49.7430   83.5010   45.6390 N.3   578  GLY578     -0.1210
     24  CA        49.7950   84.1460   46.9380 C.3   578  GLY578      0.1956
     25  C         49.2600   85.5640   46.9410 C.2   578  GLY578      0.2612
     26  O         48.6630   86.0220   45.9610 O.2   578  GLY578     -0.2717
     27  N         49.4730   86.2550   48.0580 N.am  579  GLY579     -0.1956
     28  CA        49.0320   87.6330   48.1910 C.3   579  GLY579      0.1869
     29  C         47.5380   87.7870   48.3810 C.2   579  GLY579      0.2309
     30  O         46.7870   86.8100   48.3320 O.2   579  GLY579     -0.2863
     31  N         65.0180   91.3190   47.2700 N.3   599  PHE599     -0.1241
     32  CA        63.8600   90.8910   48.0510 C.3   599  PHE599      0.1605
     33  C         64.3150   90.1090   49.2780 C.2   599  PHE599      0.2264
     34  O         65.1610   89.2230   49.1770 O.2   599  PHE599     -0.2867
     35  CB        62.9710   90.0270   47.1410 C.3   599  PHE599      0.0534
     36  CG        61.6180   89.6900   47.7110 C.ar  599  PHE599     -0.0203
     37  CD1       60.7720   90.6830   48.1960 C.ar  599  PHE599     -0.0042
     38  CD2       61.1510   88.3760   47.6730 C.ar  599  PHE599     -0.0042
     39  CE1       59.4710   90.3730   48.6310 C.ar  599  PHE599     -0.0003
     40  CE2       59.8580   88.0570   48.1040 C.ar  599  PHE599     -0.0003
     41  CZ        59.0160   89.0580   48.5820 C.ar  599  PHE599     -0.0000
     42  N         63.0710   87.7530   50.8030 N.3   601  TYR601     -0.1241
     43  CA        62.8980   86.3140   50.7170 C.3   601  TYR601      0.1605
     44  C         63.5330   85.6710   49.4870 C.2   601  TYR601      0.2264
     45  O         63.1630   84.5620   49.1050 O.2   601  TYR601     -0.2867
     46  CB        61.4060   85.9720   50.8180 C.3   601  TYR601      0.0534
     47  CG        60.7630   86.5420   52.0740 C.ar  601  TYR601     -0.0201
     48  CD1       61.0730   86.0340   53.3350 C.ar  601  TYR601     -0.0009
     49  CD2       59.8910   87.6330   52.0030 C.ar  601  TYR601     -0.0009
     50  CE1       60.5360   86.5990   54.4950 C.ar  601  TYR601      0.0417
     51  CE2       59.3490   88.2040   53.1530 C.ar  601  TYR601      0.0417
     52  CZ        59.6760   87.6850   54.3940 C.ar  601  TYR601      0.1957
     53  OH        59.1580   88.2650   55.5300 O.3   601  TYR601     -0.2866
     54  N         60.0230   95.0490   52.3000 N.3   626  TYR626     -0.1241
     55  CA        60.8490   93.8410   52.2430 C.3   626  TYR626      0.1605
     56  C         61.8780   93.8680   51.1220 C.2   626  TYR626      0.2264
     57  O         62.2390   92.8280   50.5730 O.2   626  TYR626     -0.2867
     58  CB        59.9740   92.5910   52.0870 C.3   626  TYR626      0.0534
     59  CG        58.8410   92.5000   53.0860 C.ar  626  TYR626     -0.0201
     60  CD1       57.6990   93.2920   52.9490 C.ar  626  TYR626     -0.0009
     61  CD2       58.9200   91.6490   54.1840 C.ar  626  TYR626     -0.0009
     62  CE1       56.6650   93.2370   53.8880 C.ar  626  TYR626      0.0417
     63  CE2       57.8970   91.5890   55.1270 C.ar  626  TYR626      0.0417
     64  CZ        56.7730   92.3860   54.9760 C.ar  626  TYR626      0.1957
     65  OH        55.7680   92.3420   55.9190 O.3   626  TYR626     -0.2866
     66  N         55.5220   82.0870   40.2760 N.3   653  TRP653     -0.1227
     67  CA        55.2990   82.6970   41.5780 C.3   653  TRP653      0.1737
     68  C         54.9660   84.1840   41.6510 C.2   653  TRP653      0.2595
     69  O         54.0850   84.5820   42.4200 O.2   653  TRP653     -0.2718
     70  CB        56.5160   82.4520   42.4690 C.3   653  TRP653      0.0564
     71  CG        56.9380   81.0400   42.5190 C.ar  653  TRP653      0.0003
     72  CD1       57.6910   80.3740   41.5940 C.ar  653  TRP653      0.0946
     73  CD2       56.5910   80.0830   43.5240 C.ar  653  TRP653      0.0152
     74  NE1       57.8300   79.0570   41.9610 N.ar  653  TRP653     -0.2442
     75  CE2       57.1640   78.8510   43.1420 C.ar  653  TRP653      0.0810
     76  CE3       55.8480   80.1470   44.7100 C.ar  653  TRP653      0.0012
     77  CZ2       57.0180   77.6860   43.9070 C.ar  653  TRP653      0.0191
     78  CZ3       55.7010   78.9880   45.4740 C.ar  653  TRP653      0.0001
     79  CH2       56.2840   77.7740   45.0670 C.ar  653  TRP653      0.0015
     80  N         55.6640   85.0020   40.8690 N.am  654  LEU654     -0.1980
     81  CA        55.4540   86.4390   40.9410 C.3   654  LEU654      0.1596
     82  C         55.4220   87.1880   39.6150 C.2   654  LEU654      0.2287
     83  O         55.9130   86.7080   38.5910 O.2   654  LEU654     -0.2864
     84  CB        56.5620   87.0570   41.8060 C.3   654  LEU654      0.0297
     85  CG        56.6900   86.6280   43.2730 C.3   654  LEU654      0.0022
     86  CD1       58.0450   87.0530   43.8380 C.3   654  LEU654      0.0001
     87  CD2       55.5520   87.2500   44.0750 C.3   654  LEU654      0.0001
@<TRIPOS>BOND
     1    83    82    2
     2    82    81    1
     3    66    67    1
     4    80    81    1
     5    80    68   am
     6    18    17    2
     7    81    84    1
     8    67    68    1
     9    67    70    1
    10    72    74   ar
    11    72    71   ar
    12    68    69    2
    13    17    16    1
    14    84    85    1
    15    74    75   ar
    16    70    71    1
    17    71    73   ar
    18    16    15    1
    19    16    19    1
    20    75    73   ar
    21    75    77   ar
    22    85    86    1
    23    85    87    1
    24    73    76   ar
    25    77    79   ar
    26    19    20    1
    27    76    78   ar
    28    79    78   ar
    29    20    21   ar
    30    20    22   ar
    31    23    24    1
    32    12    13    2
    33    12    11    1
    34    26    25    2
    35    14    11    1
    36    11    10    1
    37    24    25    1
    38    25    27   am
    39    35    36    1
    40    35    32    1
    41    31    32    1
    42    38    36   ar
    43    38    40   ar
    44    36    37   ar
    45    10     7   am
    46    32    33    1
    47    27    28    1
    48    40    41   ar
    49    28    29    1
    50    37    39   ar
    51    30    29    2
    52     1     2    1
    53    41    39   ar
    54     8     7    2
    55     7     6    1
    56    45    44    2
    57    34    33    2
    58    44    43    1
    59     4     3    2
    60     2     3    1
    61     3     5   am
    62     5     6    1
    63     6     9    1
    64    57    56    2
    65    43    42    1
    66    43    46    1
    67    46    47    1
    68    56    55    1
    69    49    47   ar
    70    49    51   ar
    71    47    48   ar
    72    58    55    1
    73    58    59    1
    74    55    54    1
    75    60    59   ar
    76    60    62   ar
    77    59    61   ar
    78    51    52   ar
    79    48    50   ar
    80    62    64   ar
    81    61    63   ar
    82    52    50   ar
    83    52    53    1
    84    64    63   ar
    85    64    65    1
