@<TRIPOS>MOLECULE
tmp/1xf0A01.pdb
 167 167 0 0 0
SMALL
GASTEIGER

@<TRIPOS>ATOM
      1  N         10.8160   27.9880    5.6310 N.3    47  LEU47      -0.1245
      2  CA        10.8080   28.6560    6.9190 C.3    47  LEU47       0.1561
      3  C          9.7190   29.7210    7.0240 C.2    47  LEU47       0.2260
      4  O          9.1800   29.9260    8.1000 O.2    47  LEU47      -0.2867
      5  CB        12.1740   29.3010    7.1950 C.3    47  LEU47       0.0270
      6  CG        12.3160   30.0000    8.5670 C.3    47  LEU47       0.0019
      7  CD1       12.2160   29.0170    9.7270 C.3    47  LEU47       0.0001
      8  CD2       13.6260   30.7140    8.6460 C.3    47  LEU47       0.0001
      9  N         14.8710   23.8530    4.4420 N.3    79  TRP79      -0.1241
     10  CA        15.0140   24.1690    5.8750 C.3    79  TRP79       0.1605
     11  C         15.9680   23.1730    6.5780 C.2    79  TRP79       0.2264
     12  O         16.1790   22.0400    6.1080 O.2    79  TRP79      -0.2867
     13  CB        13.6530   24.3670    6.6010 C.3    79  TRP79       0.0550
     14  CG        13.8610   24.7250    8.0580 C.ar   79  TRP79       0.0003
     15  CD1       13.4630   23.9900    9.1520 C.ar   79  TRP79       0.0946
     16  CD2       14.6410   25.8340    8.5780 C.ar   79  TRP79       0.0152
     17  NE1       13.9020   24.6130   10.3210 N.ar   79  TRP79      -0.2442
     18  CE2       14.6420   25.7230    9.9940 C.ar   79  TRP79       0.0810
     19  CE3       15.3720   26.8870    7.9800 C.ar   79  TRP79       0.0012
     20  CZ2       15.3000   26.6530   10.8170 C.ar   79  TRP79       0.0191
     21  CZ3       16.0260   27.8120    8.8070 C.ar   79  TRP79       0.0001
     22  CH2       15.9780   27.6860   10.2020 C.ar   79  TRP79       0.0015
     23  N         19.2600   26.5220    3.2460 N.3   110  HIS110     -0.1226
     24  CA        18.9500   27.7610    3.9750 C.3   110  HIS110      0.1752
     25  C         20.0700   28.1240    4.9830 C.2   110  HIS110      0.2596
     26  O         20.3750   29.3050    5.2030 O.2   110  HIS110     -0.2718
     27  CB        17.6240   27.6230    4.7370 C.3   110  HIS110      0.0759
     28  CG        16.9580   28.9250    5.0880 C.ar  110  HIS110      0.0818
     29  ND1       15.5860   29.0480    5.1690 N.ar  110  HIS110     -0.2268
     30  CD2       17.4680   30.1470    5.4090 C.ar  110  HIS110      0.1154
     31  CE1       15.2760   30.2960    5.5010 C.ar  110  HIS110      0.1986
     32  NE2       16.4010   30.9800    5.6650 N.ar  110  HIS110     -0.2212
     33  N         20.6560   27.1120    5.6160 N.am  111  SER111     -0.1952
     34  CA        21.6860   27.3510    6.6130 C.3   111  SER111      0.1924
     35  C         22.6470   26.1620    6.7500 C.2   111  SER111      0.2314
     36  O         22.2470   25.0360    6.4410 O.2   111  SER111     -0.2863
     37  CB        21.0270   27.7740    7.9400 C.3   111  SER111      0.2116
     38  OG        21.4310   27.0140    9.0450 O.3   111  SER111     -0.2180
     39  N         23.5900   24.9180    9.4970 N.3   113  MET113     -0.1245
     40  CA        23.3590   24.4460   10.8700 C.3   113  MET113      0.1570
     41  C         22.2310   23.4080   10.8530 C.2   113  MET113      0.2261
     42  O         21.0440   23.7400   11.0320 O.2   113  MET113     -0.2867
     43  CB        23.0370   25.6290   11.7980 C.3   113  MET113      0.0387
     44  CG        24.2180   26.5880   12.0920 C.3   113  MET113      0.0595
     45  SD        23.7320   28.0350   13.0840 S.3   113  MET113     -0.1393
     46  CE        22.8150   28.9150   11.8220 C.3   113  MET113      0.0692
     47  N         10.2410   23.5380   13.5960 N.3   121  LEU121     -0.1231
     48  CA        11.1750   24.2760   12.7520 C.3   121  LEU121      0.1693
     49  C         12.5140   24.4750   13.4440 C.2   121  LEU121      0.2592
     50  O         13.5520   24.2960   12.8300 O.2   121  LEU121     -0.2718
     51  CB        10.6010   25.6340   12.3440 C.3   121  LEU121      0.0284
     52  CG         9.5260   25.6720   11.2510 C.3   121  LEU121      0.0019
     53  CD1        8.8180   27.0140   11.2970 C.3   121  LEU121      0.0001
     54  CD2       10.1300   25.4250    9.8780 C.3   121  LEU121      0.0001
     55  N         12.5100   24.8720   14.7120 N.am  122  SER122     -0.1952
     56  CA        13.7780   24.9080   15.4410 C.3   122  SER122      0.1924
     57  C         13.7130   24.1560   16.7660 C.2   122  SER122      0.2314
     58  O         13.5230   24.7530   17.8100 O.2   122  SER122     -0.2863
     59  CB        14.3750   26.3260   15.5580 C.3   122  SER122      0.2116
     60  OG        13.3920   27.3420   15.6640 O.3   122  SER122     -0.2180
     61  N         23.9880   31.5260    4.1980 N.3   160  ASN160     -0.1240
     62  CA        24.6510   31.5850    5.5120 C.3   160  ASN160      0.1653
     63  C         25.9400   30.7770    5.6750 C.2   160  ASN160      0.2266
     64  O         26.3630   30.4950    6.8030 O.2   160  ASN160     -0.2867
     65  CB        23.6270   31.1860    6.6040 C.3   160  ASN160      0.1155
     66  CG        22.4280   32.1500    6.6400 C.2   160  ASN160      0.2627
     67  OD1       21.2610   31.7360    6.4720 O.2   160  ASN160     -0.2716
     68  ND2       22.7210   33.4340    6.8400 N.am  160  ASN160     -0.0877
     69  N         21.0700   39.6660    2.2760 N.3   209  TYR209     -0.1241
     70  CA        19.8250   39.8770    2.9810 C.3   209  TYR209      0.1605
     71  C         20.0800   40.7820    4.1760 C.2   209  TYR209      0.2264
     72  O         21.2490   41.0140    4.5560 O.2   209  TYR209     -0.2867
     73  CB        19.1740   38.5280    3.4010 C.3   209  TYR209      0.0534
     74  CG        19.8370   37.7650    4.5270 C.ar  209  TYR209     -0.0201
     75  CD1       19.7960   38.2400    5.8450 C.ar  209  TYR209     -0.0009
     76  CD2       20.4500   36.5270    4.2860 C.ar  209  TYR209     -0.0009
     77  CE1       20.3750   37.5380    6.9050 C.ar  209  TYR209      0.0417
     78  CE2       21.0380   35.7930    5.3370 C.ar  209  TYR209      0.0417
     79  CZ        20.9800   36.3060    6.6300 C.ar  209  TYR209      0.1957
     80  OH        21.5340   35.5930    7.6370 O.3   209  TYR209     -0.2866
     81  N         15.4440   37.4860   17.8750 N.3   220  TRP220     -0.1241
     82  CA        16.8900   37.2980   17.6820 C.3   220  TRP220      0.1605
     83  C         17.7370   38.5320   17.5270 C.2   220  TRP220      0.2264
     84  O         18.9270   38.3960   17.3480 O.2   220  TRP220     -0.2867
     85  CB        17.1950   36.4420   16.4650 C.3   220  TRP220      0.0550
     86  CG        16.1340   36.4370   15.4770 C.ar  220  TRP220      0.0003
     87  CD1       15.9420   37.3130   14.4500 C.ar  220  TRP220      0.0946
     88  CD2       15.0830   35.4740   15.4000 C.ar  220  TRP220      0.0152
     89  NE1       14.8270   36.9390   13.7200 N.ar  220  TRP220     -0.2442
     90  CE2       14.2770   35.8230   14.2930 C.ar  220  TRP220      0.0810
     91  CE3       14.7410   34.3470   16.1730 C.ar  220  TRP220      0.0012
     92  CZ2       13.1470   35.0910   13.9350 C.ar  220  TRP220      0.0191
     93  CZ3       13.6140   33.6240   15.8300 C.ar  220  TRP220      0.0001
     94  CH2       12.8350   33.9910   14.7100 C.ar  220  TRP220      0.0015
     95  N         21.1300   39.1840   13.2370 N.3   299  PHE299     -0.1227
     96  CA        20.7410   37.8910   13.7510 C.3   299  PHE299      0.1736
     97  C         21.8320   37.4960   14.7480 C.2   299  PHE299      0.2595
     98  O         22.9890   37.2180   14.3670 O.2   299  PHE299     -0.2718
     99  CB        20.5400   36.8340   12.6550 C.3   299  PHE299      0.0547
    100  CG        19.3420   37.1250   11.7550 C.ar  299  PHE299     -0.0202
    101  CD1       18.1240   36.4700   11.9460 C.ar  299  PHE299     -0.0042
    102  CD2       19.4240   38.1110   10.7610 C.ar  299  PHE299     -0.0042
    103  CE1       17.0130   36.7650   11.1350 C.ar  299  PHE299     -0.0003
    104  CE2       18.3110   38.4240    9.9600 C.ar  299  PHE299     -0.0003
    105  CZ        17.1140   37.7230   10.1410 C.ar  299  PHE299     -0.0000
    106  N         21.4420   37.5290   16.0160 N.am  300  ASN300     -0.1960
    107  CA        22.3880   37.5390   17.1180 C.3   300  ASN300      0.1819
    108  C         21.8110   36.9550   18.4150 C.2   300  ASN300      0.2622
    109  O         21.7450   37.6320   19.4570 O.2   300  ASN300     -0.2715
    110  CB        22.9150   38.9760   17.3560 C.3   300  ASN300      0.1195
    111  CG        24.0420   39.0090   18.3360 C.2   300  ASN300      0.2630
    112  OD1       24.7510   38.0110   18.5160 O.2   300  ASN300     -0.2716
    113  ND2       24.2180   40.1300   18.9890 N.am  300  ASN300     -0.0877
    114  N         21.4570   35.6710   18.3570 N.am  301  SER301     -0.1950
    115  CA        20.8090   34.9940   19.4700 C.3   301  SER301      0.1924
    116  C         21.5330   33.7010   19.9050 C.2   301  SER301      0.2314
    117  O         22.0420   32.9530   19.0700 O.2   301  SER301     -0.2863
    118  CB        19.3680   34.6670   19.0820 C.3   301  SER301      0.2116
    119  OG        18.8350   33.7760   20.0210 O.3   301  SER301     -0.2180
    120  N         20.2860   30.9890   20.6950 N.3   303  SER303     -0.1202
    121  CA        19.6340   29.7490   20.2340 C.3   303  SER303      0.2020
    122  C         20.4420   29.0800   19.1070 C.2   303  SER303      0.2618
    123  O         20.6260   27.8500   19.1180 O.2   303  SER303     -0.2717
    124  CB        18.1610   29.9600   19.8420 C.3   303  SER303      0.2103
    125  OG        18.0030   31.0260   18.9050 O.3   303  SER303     -0.2182
    126  N         20.9480   29.9050   18.1880 N.am  304  PHE304     -0.1975
    127  CA        21.7270   29.4530   17.0670 C.3   304  PHE304      0.1639
    128  C         23.2210   29.7020   17.2550 C.2   304  PHE304      0.2290
    129  O         24.0190   28.9790   16.6950 O.2   304  PHE304     -0.2864
    130  CB        21.2050   30.0770   15.7540 C.3   304  PHE304      0.0560
    131  CG        19.9900   29.3870   15.2030 C.ar  304  PHE304     -0.0200
    132  CD1       20.1090   28.3930   14.1990 C.ar  304  PHE304     -0.0042
    133  CD2       18.7130   29.6770   15.7100 C.ar  304  PHE304     -0.0042
    134  CE1       18.9550   27.7500   13.6540 C.ar  304  PHE304     -0.0003
    135  CE2       17.5620   29.0120   15.2060 C.ar  304  PHE304     -0.0003
    136  CZ        17.6880   28.0640   14.1790 C.ar  304  PHE304     -0.0000
    137  N         27.6630   27.2170   13.6030 N.3   310  TYR310     -0.1228
    138  CA        27.3550   28.6490   13.5290 C.3   310  TYR310      0.1721
    139  C         28.3580   29.3080   12.6290 C.2   310  TYR310      0.2437
    140  O         29.5430   29.0950   12.8260 O.2   310  TYR310     -0.2733
    141  CB        27.4860   29.2550   14.9070 C.3   310  TYR310      0.0547
    142  CG        26.8800   30.6240   15.0830 C.ar  310  TYR310     -0.0200
    143  CD1       25.5760   30.8990   14.6540 C.ar  310  TYR310     -0.0009
    144  CD2       27.5780   31.6290   15.7350 C.ar  310  TYR310     -0.0009
    145  CE1       24.9980   32.1640   14.8490 C.ar  310  TYR310      0.0417
    146  CE2       26.9950   32.9000   15.9470 C.ar  310  TYR310      0.0417
    147  CZ        25.7140   33.1460   15.5120 C.ar  310  TYR310      0.1957
    148  OH        25.1170   34.3880   15.7550 O.3   310  TYR310     -0.2866
    149  N         27.9070   30.0240   11.5670 N.am  311  PRO311     -0.2718
    150  CA        28.9330   30.5400   10.6730 C.3   311  PRO311      0.1535
    151  C         29.7750   31.7090   11.2030 C.2   311  PRO311      0.2598
    152  O         30.8290   32.0310   10.6110 O.2   311  PRO311     -0.2715
    153  CB        28.1310   30.9690    9.4350 C.3   311  PRO311      0.0310
    154  CG        26.7630   31.3360    9.9920 C.3   311  PRO311      0.0237
    155  CD        26.5400   30.3000   11.0720 C.3   311  PRO311      0.0939
    156  N         29.3370   32.3360   12.2870 N.am  312  TYR312     -0.1974
    157  CA        30.0060   33.5740   12.7480 C.3   312  TYR312      0.1639
    158  C         31.1470   33.3650   13.7630 C.2   312  TYR312      0.2290
    159  O         31.7770   34.3190   14.2030 O.2   312  TYR312     -0.2864
    160  CB        28.9920   34.5790   13.2590 C.3   312  TYR312      0.0560
    161  CG        27.9670   35.0000   12.2090 C.ar  312  TYR312     -0.0198
    162  CD1       28.3600   35.3040   10.9050 C.ar  312  TYR312     -0.0009
    163  CD2       26.6120   35.0830   12.5230 C.ar  312  TYR312     -0.0009
    164  CE1       27.4040   35.6840    9.9160 C.ar  312  TYR312      0.0417
    165  CE2       25.6520   35.4860   11.5620 C.ar  312  TYR312      0.0417
    166  CZ        26.0680   35.7820   10.2610 C.ar  312  TYR312      0.1957
    167  OH        25.1440   36.1630    9.3000 O.3   312  TYR312     -0.2866
@<TRIPOS>BOND
     1    69    70    1
     2    70    73    1
     3    70    71    1
     4    23    24    1
     5    73    74    1
     6    24    27    1
     7    24    25    1
     8    71    72    2
     9    61    62    1
    10    76    74   ar
    11    76    78   ar
    12     9    10    1
    13    74    75   ar
    14    27    28    1
    15    25    26    2
    16    25    33   am
    17    28    29   ar
    18    28    30   ar
    19    29    31   ar
    20    78    79   ar
    21    30    32   ar
    22    31    32   ar
    23    62    63    1
    24    62    65    1
    25    33    34    1
    26     1     2    1
    27    63    64    2
    28    75    77   ar
    29    10    11    1
    30    10    13    1
    31    12    11    2
    32    36    35    2
    33    67    66    2
    34    13    14    1
    35    65    66    1
    36    34    35    1
    37    34    37    1
    38    79    77   ar
    39    79    80    1
    40    66    68   am
    41     2     3    1
    42     2     5    1
    43     3     4    2
    44     5     6    1
    45    37    38    1
    46    19    16   ar
    47    19    21   ar
    48    14    16   ar
    49    14    15   ar
    50     6     8    1
    51     6     7    1
    52    16    18   ar
    53    21    22   ar
    54    15    17   ar
    55   167   166    1
    56   153   154    1
    57   153   150    1
    58    39    40    1
    59    54    52    1
    60   164   166   ar
    61   164   162   ar
    62   104   105   ar
    63   104   102   ar
    64   154   155    1
    65    18    17   ar
    66    18    20   ar
    67   105   103   ar
    68    22    20   ar
    69   166   165   ar
    70   152   151    2
    71   150   151    1
    72   150   149    1
    73   102   100   ar
    74    41    40    1
    75    41    42    2
    76    40    43    1
    77   162   161   ar
    78   155   149    1
    79   103   101   ar
    80   151   156   am
    81    52    53    1
    82    52    51    1
    83   165   163   ar
    84   149   139   am
    85   100   101   ar
    86   100    99    1
    87    43    44    1
    88    46    45    1
    89    44    45    1
    90   161   163   ar
    91   161   160    1
    92   156   157    1
    93    51    48    1
    94   139   140    2
    95   139   138    1
    96    99    96    1
    97   157   160    1
    98   157   158    1
    99    48    49    1
   100    48    47    1
   101    50    49    2
   102    95    96    1
   103    49    55   am
   104   138   137    1
   105   138   141    1
   106   134   136   ar
   107   134   132   ar
   108    89    90   ar
   109    89    87   ar
   110    96    97    1
   111   158   159    2
   112    92    90   ar
   113    92    94   ar
   114   136   135   ar
   115   132   131   ar
   116    90    88   ar
   117    98    97    2
   118    87    86   ar
   119   143   145   ar
   120   143   142   ar
   121    94    93   ar
   122    55    56    1
   123    97   106   am
   124   145   147   ar
   125   141   142    1
   126   142   144   ar
   127   131   133   ar
   128   131   130    1
   129   135   133   ar
   130    88    86   ar
   131    88    91   ar
   132    56    59    1
   133    56    57    1
   134    86    85    1
   135   147   148    1
   136   147   146   ar
   137    59    60    1
   138   144   146   ar
   139   130   127    1
   140    93    91   ar
   141   106   107    1
   142    85    82    1
   143   129   128    2
   144    57    58    2
   145   127   128    1
   146   127   126    1
   147   107   110    1
   148   107   108    1
   149    84    83    2
   150   110   111    1
   151    83    82    1
   152    82    81    1
   153   126   122   am
   154   111   112    2
   155   111   113   am
   156   114   108   am
   157   114   115    1
   158   108   109    2
   159   125   124    1
   160   117   116    2
   161   118   115    1
   162   118   119    1
   163   122   123    2
   164   122   121    1
   165   115   116    1
   166   124   121    1
   167   121   120    1
