@<TRIPOS>MOLECULE
tmp/1xf1B00.pdb
 103 95 0 0 0
SMALL
GASTEIGER

@<TRIPOS>ATOM
      1  N         57.4410   -3.2890  -73.0000 N.3   160  TYR160     -0.1241
      2  CA        58.0850   -2.0040  -73.2320 C.3   160  TYR160      0.1605
      3  C         59.5080   -1.8550  -72.7080 C.2   160  TYR160      0.2264
      4  O         60.0100   -0.7360  -72.5540 O.2   160  TYR160     -0.2867
      5  CB        57.1820   -0.9090  -72.6660 C.3   160  TYR160      0.0534
      6  CG        55.7730   -1.0670  -73.1780 C.ar  160  TYR160     -0.0201
      7  CD1       55.5000   -0.9620  -74.5380 C.ar  160  TYR160     -0.0009
      8  CD2       54.7210   -1.3700  -72.3150 C.ar  160  TYR160     -0.0009
      9  CE1       54.2100   -1.1560  -75.0300 C.ar  160  TYR160      0.0417
     10  CE2       53.4310   -1.5680  -72.7950 C.ar  160  TYR160      0.0417
     11  CZ        53.1820   -1.4580  -74.1510 C.ar  160  TYR160      0.1957
     12  OH        51.8990   -1.6450  -74.6240 O.3   160  TYR160     -0.2866
     13  N         43.2560    3.8400  -76.0620 N.3   204  ASP204     -0.1239
     14  CA        44.5940    3.3080  -76.2590 C.3   204  ASP204      0.1674
     15  C         44.8130    2.2920  -75.1390 C.2   204  ASP204      0.2266
     16  O         45.5320    2.5760  -74.1780 O.2   204  ASP204     -0.2867
     17  CB        45.6420    4.4250  -76.1680 C.3   204  ASP204      0.1410
     18  CG        47.0520    3.9030  -76.3740 C.2   204  ASP204      0.3668
     19  OD1       47.1740    2.7380  -76.8060 O.co2 204  ASP204     -0.2456
     20  OD2       48.0310    4.6350  -76.1170 O.co2 204  ASP204     -0.2456
     21  N         45.7100   -1.3200  -75.5950 N.3   206  GLY206     -0.1225
     22  CA        46.4530   -2.5350  -75.8570 C.3   206  GLY206      0.1811
     23  C         47.7740   -2.5240  -75.0940 C.2   206  GLY206      0.2280
     24  O         48.3970   -1.4760  -74.9340 O.2   206  GLY206     -0.2866
     25  N         51.3700   -4.4120  -75.2130 N.3   208  VAL208     -0.1245
     26  CA        52.2840   -5.2740  -75.9530 C.3   208  VAL208      0.1561
     27  C         53.3190   -5.8670  -75.0060 C.2   208  VAL208      0.2260
     28  O         54.1740   -5.1520  -74.4910 O.2   208  VAL208     -0.2867
     29  CB        53.0010   -4.4640  -77.0430 C.3   208  VAL208      0.0252
     30  CG1       53.9070   -5.3680  -77.8790 C.3   208  VAL208      0.0019
     31  CG2       51.9670   -3.7680  -77.9150 C.3   208  VAL208      0.0019
     32  N         59.7210   -3.8860  -78.0790 N.3   212  ALA212     -0.1245
     33  CA        59.7880   -3.4140  -79.4550 C.3   212  ALA212      0.1562
     34  C         61.0270   -3.9160  -80.1880 C.2   212  ALA212      0.2260
     35  O         60.9360   -4.3980  -81.3180 O.2   212  ALA212     -0.2867
     36  CB        59.7400   -1.8930  -79.4850 C.3   212  ALA212      0.0290
     37  N         48.9500   -2.3550  -80.5670 N.3   369  LEU369     -0.1231
     38  CA        49.3190   -1.5000  -81.6890 C.3   369  LEU369      0.1693
     39  C         50.8090   -1.2250  -81.5840 C.2   369  LEU369      0.2593
     40  O         51.3540   -1.1780  -80.4830 O.2   369  LEU369     -0.2718
     41  CB        48.5550   -0.1710  -81.6400 C.3   369  LEU369      0.0284
     42  CG        47.0360   -0.2220  -81.8330 C.3   369  LEU369      0.0019
     43  CD1       46.4420    1.1820  -81.7220 C.3   369  LEU369      0.0001
     44  CD2       46.7150   -0.8300  -83.1960 C.3   369  LEU369      0.0001
     45  N         51.4730   -1.0700  -82.7250 N.am  370  THR370     -0.1939
     46  CA        52.8960   -0.7600  -82.7310 C.3   370  THR370      0.2028
     47  C         52.9730    0.7600  -82.5950 C.2   370  THR370      0.2642
     48  O         51.9540    1.4400  -82.6690 O.2   370  THR370     -0.2714
     49  CB        53.5680   -1.1990  -84.0500 C.3   370  THR370      0.1808
     50  OG1       53.0630   -0.4100  -85.1310 O.3   370  THR370     -0.2208
     51  CG2       53.2730   -2.6710  -84.3350 C.3   370  THR370      0.0379
     52  N         54.1740    1.2900  -82.3980 N.am  371  ALA371     -0.1977
     53  CA        54.3610    2.7290  -82.2250 C.3   371  ALA371      0.1597
     54  C         53.8490    3.5800  -83.3860 C.2   371  ALA371      0.2287
     55  O         53.4160    4.7130  -83.1840 O.2   371  ALA371     -0.2864
     56  CB        55.8440    3.0310  -81.9760 C.3   371  ALA371      0.0319
     57  N         44.4360   10.1060  -82.1970 N.3   596  PHE596     -0.1241
     58  CA        45.0560    9.0910  -81.3520 C.3   596  PHE596      0.1605
     59  C         46.3520    9.5340  -80.6820 C.2   596  PHE596      0.2264
     60  O         46.5550    9.3030  -79.4910 O.2   596  PHE596     -0.2867
     61  CB        45.3360    7.8240  -82.1700 C.3   596  PHE596      0.0534
     62  CG        45.7560    6.6410  -81.3340 C.ar  596  PHE596     -0.0203
     63  CD1       44.8080    5.8040  -80.7730 C.ar  596  PHE596     -0.0042
     64  CD2       47.1050    6.3770  -81.1000 C.ar  596  PHE596     -0.0042
     65  CE1       45.1890    4.7110  -79.9880 C.ar  596  PHE596     -0.0003
     66  CE2       47.4980    5.2910  -80.3170 C.ar  596  PHE596     -0.0003
     67  CZ        46.5400    4.4560  -79.7590 C.ar  596  PHE596     -0.0000
     68  N         48.9740    6.0380  -70.8780 N.3   723  ARG723     -0.1231
     69  CA        49.6860    5.7550  -72.1220 C.3   723  ARG723      0.1694
     70  C         51.1900    5.8810  -71.8840 C.2   723  ARG723      0.2592
     71  O         51.6240    6.5380  -70.9330 O.2   723  ARG723     -0.2718
     72  CB        49.2660    6.7450  -73.2180 C.3   723  ARG723      0.0321
     73  CG        47.7630    6.8420  -73.4530 C.3   723  ARG723      0.0489
     74  CD        47.4600    7.8280  -74.5910 C.3   723  ARG723      0.2205
     75  NE        48.0930    7.4090  -75.8450 N.pl3 723  ARG723     -0.0865
     76  CZ        48.4840    8.2470  -76.8030 C.cat 723  ARG723      0.5346
     77  NH1       49.0510    7.7830  -77.9090 N.pl3 723  ARG723      0.1354
     78  NH2       48.3160    9.5530  -76.6530 N.pl3 723  ARG723      0.1354
     79  N         51.9960    5.2520  -72.7250 N.am  724  ASN724     -0.1974
     80  CA        53.4330    5.3810  -72.5470 C.3   724  ASN724      0.1688
     81  C         53.8050    6.8160  -72.8910 C.2   724  ASN724      0.2292
     82  O         53.1130    7.4770  -73.6650 O.2   724  ASN724     -0.2864
     83  CB        54.1930    4.4160  -73.4510 C.3   724  ASN724      0.1181
     84  CG        54.1850    3.0040  -72.9130 C.2   724  ASN724      0.2629
     85  OD1       54.4230    2.7890  -71.7290 O.2   724  ASN724     -0.2716
     86  ND2       53.9140    2.0340  -73.7770 N.am  724  ASN724     -0.0877
     87  N         53.6160    3.0900  -69.1250 N.3   751  LYS751     -0.1245
     88  CA        52.2670    3.2020  -68.5970 C.3   751  LYS751      0.1561
     89  C         51.9940    2.1720  -67.5060 C.2   751  LYS751      0.2260
     90  O         52.5730    1.0910  -67.4830 O.2   751  LYS751     -0.2867
     91  CB        51.2400    3.0680  -69.7240 C.3   751  LYS751      0.0271
     92  CG        51.2780    1.7430  -70.4700 C.3   751  LYS751      0.0035
     93  CD        50.2890    1.7690  -71.6330 C.3   751  LYS751      0.0206
     94  CE        50.4390    0.5560  -72.5250 C.3   751  LYS751      0.1093
     95  NZ        49.6230    0.7140  -73.7690 N.3   751  LYS751     -0.1314
     96  N         54.3220    8.7920  -76.9010 N.3   795  ILE795     -0.1245
     97  CA        55.3050    8.3210  -77.8590 C.3   795  ILE795      0.1561
     98  C         54.8310    8.3590  -79.3160 C.2   795  ILE795      0.2260
     99  O         55.6450    8.2700  -80.2250 O.2   795  ILE795     -0.2867
    100  CB        55.8050    6.8940  -77.4920 C.3   795  ILE795      0.0252
    101  CG1       54.6250    5.9350  -77.3630 C.3   795  ILE795      0.0019
    102  CG2       56.6110    6.9460  -76.1830 C.3   795  ILE795      0.0019
    103  CD1       54.0050    5.5250  -78.6980 C.3   795  ILE795      0.0001
@<TRIPOS>BOND
     1    50    49    1
     2    51    49    1
     3    49    46    1
     4    54    55    2
     5    54    53    1
     6    44    42    1
     7    46    45    1
     8    46    47    1
     9    45    39   am
    10    48    47    2
    11    47    52   am
    12    52    53    1
    13    53    56    1
    14    57    58    1
    15    61    58    1
    16    61    62    1
    17    42    43    1
    18    42    41    1
    19    38    41    1
    20    38    39    1
    21    38    37    1
    22    39    40    2
    23    58    59    1
    24    62    64   ar
    25    62    63   ar
    26    35    34    2
    27    64    66   ar
    28    63    65   ar
    29    59    60    2
    30    66    67   ar
    31    99    98    2
    32    34    33    1
    33    65    67   ar
    34    36    33    1
    35    33    32    1
    36    98    97    1
    37   103   101    1
    38    31    29    1
    39    77    76    1
    40    30    29    1
    41    97   100    1
    42    97    96    1
    43   100   101    1
    44   100   102    1
    45    29    26    1
    46    19    18   ar
    47    76    78    1
    48    76    75    2
    49    18    17    1
    50    18    20   ar
    51    14    17    1
    52    14    13    1
    53    14    15    1
    54    26    25    1
    55    26    27    1
    56    22    21    1
    57    22    23    1
    58    75    74    1
    59    15    16    2
    60    23    24    2
    61     9     7   ar
    62     9    11   ar
    63    27    28    2
    64    12    11    1
    65    74    73    1
    66     7     6   ar
    67    11    10   ar
    68    86    84   am
    69    95    94    1
    70    82    81    2
    71    73    72    1
    72    83    84    1
    73    83    80    1
    74     2     1    1
    75     2     3    1
    76     2     5    1
    77    72    69    1
    78     6     5    1
    79     6     8   ar
    80    84    85    2
    81    81    80    1
    82    10     8   ar
    83    79    80    1
    84    79    70   am
    85     3     4    2
    86    94    93    1
    87    69    70    1
    88    69    68    1
    89    70    71    2
    90    93    92    1
    91    92    91    1
    92    91    88    1
    93    87    88    1
    94    88    89    1
    95    89    90    2
