@<TRIPOS>MOLECULE
tmp/1xf1B01.pdb
 113 105 0 0 0
SMALL
GASTEIGER

@<TRIPOS>ATOM
      1  N         43.1630   -8.7340  -66.5850 N.3   194  LYS194     -0.1245
      2  CA        41.9760   -9.5790  -66.6500 C.3   194  LYS194      0.1561
      3  C         40.9010   -9.3080  -65.5880 C.2   194  LYS194      0.2260
      4  O         39.7280   -9.5910  -65.8150 O.2   194  LYS194     -0.2867
      5  CB        42.4090  -11.0560  -66.6030 C.3   194  LYS194      0.0271
      6  CG        41.2610  -12.0550  -66.6670 C.3   194  LYS194      0.0035
      7  CD        41.7540  -13.4850  -66.9050 C.3   194  LYS194      0.0206
      8  CE        42.4440  -13.6140  -68.2540 C.3   194  LYS194      0.1093
      9  NZ        42.6100  -15.0400  -68.6640 N.3   194  LYS194     -0.1314
     10  N         28.8540  -24.0610  -61.5490 N.3   284  ARG284     -0.1245
     11  CA        29.8990  -23.1170  -61.1760 C.3   284  ARG284      0.1563
     12  C         29.2770  -21.8390  -60.6160 C.2   284  ARG284      0.2260
     13  O         28.1960  -21.4330  -61.0380 O.2   284  ARG284     -0.2867
     14  CB        30.7500  -22.7840  -62.4050 C.3   284  ARG284      0.0307
     15  CG        31.7370  -21.6460  -62.2040 C.3   284  ARG284      0.0489
     16  CD        32.4030  -21.2640  -63.5180 C.3   284  ARG284      0.2205
     17  NE        33.0860  -19.9790  -63.4170 N.pl3 284  ARG284     -0.0865
     18  CZ        33.5810  -19.3050  -64.4510 C.cat 284  ARG284      0.5346
     19  NH1       33.4760  -19.7880  -65.6830 N.pl3 284  ARG284      0.1354
     20  NH2       34.1700  -18.1350  -64.2510 N.pl3 284  ARG284      0.1354
     21  N         29.8670  -25.1610  -66.4420 N.3   308  ASP308     -0.1239
     22  CA        29.9480  -23.7160  -66.6020 C.3   308  ASP308      0.1674
     23  C         28.6120  -23.0290  -66.3650 C.2   308  ASP308      0.2266
     24  O         27.5500  -23.6240  -66.5540 O.2   308  ASP308     -0.2867
     25  CB        30.4420  -23.3700  -68.0070 C.3   308  ASP308      0.1410
     26  CG        31.1880  -22.0530  -68.0540 C.2   308  ASP308      0.3668
     27  OD1       30.9240  -21.1820  -67.1980 O.co2 308  ASP308     -0.2456
     28  OD2       32.0330  -21.8860  -68.9580 O.co2 308  ASP308     -0.2456
     29  N         28.2740  -20.0400  -67.7900 N.3   310  GLN310     -0.1245
     30  CA        28.3280  -19.1070  -68.9110 C.3   310  GLN310      0.1566
     31  C         28.1000  -19.9020  -70.1930 C.2   310  GLN310      0.2260
     32  O         28.6440  -20.9940  -70.3520 O.2   310  GLN310     -0.2867
     33  CB        29.6990  -18.4270  -68.9730 C.3   310  GLN310      0.0367
     34  CG        30.2050  -17.9100  -67.6380 C.3   310  GLN310      0.0905
     35  CD        31.4110  -17.0070  -67.7940 C.2   310  GLN310      0.2608
     36  OE1       32.1000  -16.6920  -66.8220 O.2   310  GLN310     -0.2717
     37  NE2       31.6680  -16.5760  -69.0220 N.am  310  GLN310     -0.0878
     38  N         31.3720  -20.2610  -72.7970 N.3   313  GLY313     -0.1210
     39  CA        32.5990  -20.3280  -72.0170 C.3   313  GLY313      0.1956
     40  C         33.6470  -21.3560  -72.4110 C.2   313  GLY313      0.2611
     41  O         33.3340  -22.4260  -72.9340 O.2   313  GLY313     -0.2717
     42  N         34.9090  -21.0150  -72.1590 N.am  314  PHE314     -0.1976
     43  CA        36.0310  -21.9050  -72.4460 C.3   314  PHE314      0.1639
     44  C         36.0050  -23.0370  -71.4270 C.2   314  PHE314      0.2290
     45  O         35.4860  -22.8730  -70.3260 O.2   314  PHE314     -0.2864
     46  CB        37.3760  -21.1790  -72.2710 C.3   314  PHE314      0.0560
     47  CG        37.7760  -20.3030  -73.4270 C.ar  314  PHE314     -0.0200
     48  CD1       38.0680  -18.9560  -73.2190 C.ar  314  PHE314     -0.0042
     49  CD2       37.9120  -20.8290  -74.7090 C.ar  314  PHE314     -0.0042
     50  CE1       38.4950  -18.1420  -74.2760 C.ar  314  PHE314     -0.0003
     51  CE2       38.3360  -20.0270  -75.7710 C.ar  314  PHE314     -0.0003
     52  CZ        38.6290  -18.6800  -75.5520 C.ar  314  PHE314     -0.0000
     53  N         37.1260  -25.1800  -68.4400 N.3   316  ILE316     -0.1245
     54  CA        37.9800  -24.8620  -67.3030 C.3   316  ILE316      0.1561
     55  C         38.6490  -26.1080  -66.7330 C.2   316  ILE316      0.2260
     56  O         38.0080  -27.1400  -66.5580 O.2   316  ILE316     -0.2867
     57  CB        37.1800  -24.1800  -66.1780 C.3   316  ILE316      0.0252
     58  CG1       36.6300  -22.8410  -66.6750 C.3   316  ILE316      0.0019
     59  CG2       38.0680  -23.9820  -64.9510 C.3   316  ILE316      0.0019
     60  CD1       35.8260  -22.0870  -65.6460 C.3   316  ILE316      0.0001
     61  N         36.2670  -18.7380  -80.9160 N.3   360  LYS360     -0.1245
     62  CA        36.4160  -17.7220  -79.8920 C.3   360  LYS360      0.1561
     63  C         37.8500  -17.3650  -79.5130 C.2   360  LYS360      0.2260
     64  O         38.7040  -18.2340  -79.3580 O.2   360  LYS360     -0.2867
     65  CB        35.6660  -18.1920  -78.6410 C.3   360  LYS360      0.0271
     66  CG        35.7590  -17.2730  -77.4380 C.3   360  LYS360      0.0035
     67  CD        35.2880  -17.9960  -76.1850 C.3   360  LYS360      0.0206
     68  CE        35.3060  -17.0740  -74.9740 C.3   360  LYS360      0.1093
     69  NZ        34.8820  -17.7810  -73.7320 N.3   360  LYS360     -0.1314
     70  N         39.9470  -15.2130  -76.6090 N.3   362  SER362     -0.1202
     71  CA        39.7160  -14.6660  -75.2800 C.3   362  SER362      0.2020
     72  C         39.5390  -13.1530  -75.4370 C.2   362  SER362      0.2619
     73  O         40.2140  -12.5230  -76.2580 O.2   362  SER362     -0.2717
     74  CB        40.9100  -14.9490  -74.3720 C.3   362  SER362      0.2103
     75  OG        40.8380  -14.1400  -73.2110 O.3   362  SER362     -0.2182
     76  N         38.6380  -12.5650  -74.6590 N.am  363  ARG363     -0.1965
     77  CA        38.4010  -11.1290  -74.7600 C.3   363  ARG363      0.1729
     78  C         39.5990  -10.2990  -74.2890 C.2   363  ARG363      0.2616
     79  O         39.6980   -9.1160  -74.6020 O.2   363  ARG363     -0.2715
     80  CB        37.1520  -10.7360  -73.9580 C.3   363  ARG363      0.0348
     81  CG        37.3880  -10.5540  -72.4690 C.3   363  ARG363      0.0492
     82  CD        36.1540   -9.9770  -71.7740 C.3   363  ARG363      0.2205
     83  NE        34.9910  -10.8380  -71.9580 N.pl3 363  ARG363     -0.0865
     84  CZ        34.0260  -10.6200  -72.8430 C.cat 363  ARG363      0.5346
     85  NH1       34.0690   -9.5540  -73.6350 N.pl3 363  ARG363      0.1354
     86  NH2       33.0200  -11.4800  -72.9470 N.pl3 363  ARG363      0.1354
     87  N         40.5190  -10.9220  -73.5580 N.am  364  PHE364     -0.1974
     88  CA        41.6850  -10.2100  -73.0410 C.3   364  PHE364      0.1639
     89  C         42.9480  -10.4570  -73.8530 C.2   364  PHE364      0.2290
     90  O         44.0020   -9.9030  -73.5590 O.2   364  PHE364     -0.2864
     91  CB        41.9550  -10.6310  -71.5910 C.3   364  PHE364      0.0560
     92  CG        40.7670  -10.4930  -70.6860 C.ar  364  PHE364     -0.0200
     93  CD1       40.0640  -11.6190  -70.2610 C.ar  364  PHE364     -0.0042
     94  CD2       40.3310   -9.2360  -70.2760 C.ar  364  PHE364     -0.0042
     95  CE1       38.9410  -11.4940  -69.4440 C.ar  364  PHE364     -0.0003
     96  CE2       39.2090   -9.1020  -69.4600 C.ar  364  PHE364     -0.0003
     97  CZ        38.5130  -10.2370  -69.0460 C.ar  364  PHE364     -0.0000
     98  N         40.9140  -22.5310  -69.7330 N.3   387  LEU387     -0.1245
     99  CA        41.1370  -21.6550  -68.5900 C.3   387  LEU387      0.1561
    100  C         41.5790  -22.5060  -67.4020 C.2   387  LEU387      0.2260
    101  O         40.8690  -23.4280  -66.9980 O.2   387  LEU387     -0.2867
    102  CB        39.8540  -20.9130  -68.2300 C.3   387  LEU387      0.0270
    103  CG        39.4630  -19.7430  -69.1280 C.3   387  LEU387      0.0019
    104  CD1       38.0420  -19.2990  -68.8170 C.3   387  LEU387      0.0001
    105  CD2       40.4350  -18.6040  -68.9090 C.3   387  LEU387      0.0001
    106  N         44.5040  -18.2270  -69.0630 N.3   398  LEU398     -0.1245
    107  CA        44.2780  -18.9730  -70.2920 C.3   398  LEU398      0.1561
    108  C         45.4710  -19.9010  -70.4760 C.2   398  LEU398      0.2260
    109  O         46.6280  -19.4920  -70.3350 O.2   398  LEU398     -0.2867
    110  CB        44.1510  -18.0230  -71.4910 C.3   398  LEU398      0.0270
    111  CG        43.7400  -18.6330  -72.8370 C.3   398  LEU398      0.0019
    112  CD1       42.3410  -19.2410  -72.7230 C.3   398  LEU398      0.0001
    113  CD2       43.7590  -17.5560  -73.9210 C.3   398  LEU398      0.0001
@<TRIPOS>BOND
     1    61    62    1
     2    62    63    1
     3    62    65    1
     4    63    64    2
     5    65    66    1
     6    66    67    1
     7    70    71    1
     8    73    72    2
     9    67    68    1
    10    51    52   ar
    11    51    49   ar
    12    52    50   ar
    13    72    71    1
    14    72    76   am
    15    71    74    1
    16    68    69    1
    17    77    76    1
    18    77    78    1
    19    77    80    1
    20    49    47   ar
    21    79    78    2
    22    74    75    1
    23    78    87   am
    24    50    48   ar
    25    80    81    1
    26   113   111    1
    27    89    90    2
    28    89    88    1
    29    85    84    1
    30    87    88    1
    31    47    48   ar
    32    47    46    1
    33    88    91    1
    34    86    84    1
    35    41    40    2
    36    84    83    2
    37   111   112    1
    38   111   110    1
    39    38    39    1
    40    81    82    1
    41    43    46    1
    42    43    42    1
    43    43    44    1
    44    40    42   am
    45    40    39    1
    46    83    82    1
    47    91    92    1
    48   110   107    1
    49    44    45    2
    50    92    94   ar
    51    92    93   ar
    52   108   109    2
    53   108   107    1
    54    32    31    2
    55   107   106    1
    56    94    96   ar
    57    93    95   ar
    58    31    30    1
    59    98    99    1
    60    96    97   ar
    61    95    97   ar
    62   103   105    1
    63   103   104    1
    64   103   102    1
    65    37    35   am
    66    33    30    1
    67    33    34    1
    68    28    26   ar
    69    30    29    1
    70     9     8    1
    71    99   102    1
    72    99   100    1
    73    53    54    1
    74     8     7    1
    75    26    25    1
    76    26    27   ar
    77    25    22    1
    78    35    34    1
    79    35    36    2
    80   100   101    2
    81    54    55    1
    82    54    57    1
    83     7     6    1
    84    55    56    2
    85    58    57    1
    86    58    60    1
    87     6     5    1
    88     2     5    1
    89     2     1    1
    90     2     3    1
    91    22    21    1
    92    22    23    1
    93    24    23    2
    94    57    59    1
    95     4     3    2
    96    19    18    1
    97    18    20    1
    98    18    17    2
    99    16    17    1
   100    16    15    1
   101    14    15    1
   102    14    11    1
   103    10    11    1
   104    11    12    1
   105    13    12    2
