@<TRIPOS>MOLECULE
tmp/1xf6B01.pdb
 138 135 0 0 0
SMALL
GASTEIGER

@<TRIPOS>ATOM
      1  N        -14.0670   35.5440   36.8010 N.3    12  THR12      -0.1218
      2  CA       -12.8220   35.7110   37.5290 C.3    12  THR12       0.1862
      3  C        -13.1080   35.3670   38.9890 C.2    12  THR12       0.2287
      4  O        -13.9710   35.9870   39.6210 O.2    12  THR12      -0.2866
      5  CB       -12.2520   37.1160   37.3810 C.3    12  THR12       0.1770
      6  OG1      -12.2520   37.5400   36.0140 O.3    12  THR12      -0.2211
      7  CG2      -10.8020   37.1720   37.8640 C.3    12  THR12       0.0375
      8  N        -11.8740   35.4990   42.5750 N.3    14  PHE14      -0.1241
      9  CA       -10.9320   36.2300   43.4470 C.3    14  PHE14       0.1605
     10  C        -11.0340   35.6890   44.8590 C.2    14  PHE14       0.2264
     11  O        -11.7930   36.2240   45.6790 O.2    14  PHE14      -0.2867
     12  CB       -11.2610   37.7260   43.4780 C.3    14  PHE14       0.0534
     13  CG       -11.0460   38.4980   42.2150 C.ar   14  PHE14      -0.0203
     14  CD1      -12.0690   38.7240   41.3290 C.ar   14  PHE14      -0.0042
     15  CD2       -9.8310   39.1130   41.9610 C.ar   14  PHE14      -0.0042
     16  CE1      -11.9130   39.4870   40.2120 C.ar   14  PHE14      -0.0003
     17  CE2       -9.6800   39.9110   40.8150 C.ar   14  PHE14      -0.0003
     18  CZ       -10.7290   40.0900   39.9690 C.ar   14  PHE14      -0.0000
     19  N         -9.0710   36.1020   47.7060 N.3    16  HIS16      -0.1241
     20  CA        -7.9800   36.9600   48.1510 C.3    16  HIS16       0.1621
     21  C         -7.9830   37.0660   49.6820 C.2    16  HIS16       0.2264
     22  O         -7.7060   38.1050   50.2720 O.2    16  HIS16      -0.2867
     23  CB        -8.0150   38.3140   47.4400 C.3    16  HIS16       0.0745
     24  CG        -7.5220   38.2670   46.0300 C.ar   16  HIS16       0.0817
     25  ND1       -7.3620   39.4390   45.3190 N.ar   16  HIS16      -0.2268
     26  CD2       -7.1020   37.2440   45.2440 C.ar   16  HIS16       0.1154
     27  CE1       -6.8710   39.1020   44.1430 C.ar   16  HIS16       0.1986
     28  NE2       -6.7120   37.7930   44.0520 N.ar   16  HIS16      -0.2212
     29  N         -5.3160   39.1590   51.7760 N.3    19  CYS19      -0.1221
     30  CA        -4.7580   40.1820   50.8970 C.3    19  CYS19       0.1808
     31  C         -4.8390   41.5620   51.5080 C.2    19  CYS19       0.2602
     32  O         -5.8940   41.9690   51.9930 O.2    19  CYS19      -0.2717
     33  CB        -5.5270   40.1290   49.5970 C.3    19  CYS19       0.0970
     34  SG        -5.0700   41.3540   48.3620 S.3    19  CYS19      -0.0800
     35  N         -3.7590   42.3120   51.4480 N.am   20  SER20      -0.1938
     36  CA        -3.6860   43.6520   51.9710 C.3    20  SER20       0.2055
     37  C         -4.4230   44.7090   51.1520 C.2    20  SER20       0.2642
     38  O         -4.6780   45.7820   51.6540 O.2    20  SER20      -0.2714
     39  CB        -2.2520   44.0930   52.1720 C.3    20  SER20       0.2130
     40  OG        -1.5560   44.0260   50.9530 O.3    20  SER20      -0.2179
     41  N         -4.7920   44.4090   49.9150 N.am   21  ARG21      -0.1977
     42  CA        -5.5530   45.3050   49.0510 C.3    21  ARG21       0.1597
     43  C         -7.0040   45.1600   49.4480 C.2    21  ARG21       0.2287
     44  O         -7.5720   44.0620   49.3520 O.2    21  ARG21      -0.2864
     45  CB        -5.3100   44.9090   47.5860 C.3    21  ARG21       0.0334
     46  CG        -5.9010   45.8150   46.5410 C.3    21  ARG21       0.0492
     47  CD        -7.3740   45.6820   46.3030 C.3    21  ARG21       0.2205
     48  NE        -7.7660   46.3610   45.0870 N.pl3  21  ARG21      -0.0865
     49  CZ        -8.9940   46.3980   44.5990 C.cat  21  ARG21       0.5346
     50  NH1      -10.0110   45.9340   45.3300 N.pl3  21  ARG21       0.1354
     51  NH2       -9.2310   46.8880   43.4090 N.pl3  21  ARG21       0.1354
     52  N        -10.9630   44.9480   49.7230 N.3    23  PRO23      -0.2102
     53  CA       -12.1340   44.8230   48.8380 C.3    23  PRO23       0.1504
     54  C        -12.8420   46.1340   48.6960 C.2    23  PRO23       0.2576
     55  O        -12.8390   46.9410   49.6360 O.2    23  PRO23      -0.2718
     56  CB       -13.0080   43.8460   49.5870 C.3    23  PRO23       0.0282
     57  CG       -12.1250   43.0820   50.5250 C.3    23  PRO23       0.0208
     58  CD       -11.0220   44.0130   50.8880 C.3    23  PRO23       0.0893
     59  N        -13.4520   46.4040   47.5780 N.am   24  LYS24      -0.1966
     60  CA       -14.2540   47.6180   47.3840 C.3    24  LYS24       0.1728
     61  C        -15.3160   47.4660   46.3030 C.2    24  LYS24       0.2616
     62  O        -16.3290   48.1710   46.3330 O.2    24  LYS24      -0.2715
     63  CB       -13.3940   48.8260   47.1090 C.3    24  LYS24       0.0311
     64  CG       -12.7620   48.8930   45.7750 C.3    24  LYS24       0.0038
     65  CD       -12.0000   50.1800   45.5800 C.3    24  LYS24       0.0206
     66  CE       -11.5790   50.2180   44.1690 C.3    24  LYS24       0.1093
     67  NZ       -10.5670   51.2520   43.9040 N.3    24  LYS24      -0.1314
     68  N        -15.1520   46.5900   45.3540 N.am   25  GLU25      -0.1963
     69  CA       -16.0470   46.4960   44.2180 C.3    25  GLU25       0.1733
     70  C        -17.4040   45.9420   44.6040 C.2    25  GLU25       0.2616
     71  O        -18.4410   46.4120   44.1200 O.2    25  GLU25      -0.2715
     72  CB       -15.3790   45.6480   43.1280 C.3    25  GLU25       0.0429
     73  CG       -14.2140   46.3270   42.4650 C.3    25  GLU25       0.1163
     74  CD       -12.8580   46.3030   43.1540 C.2    25  GLU25       0.3649
     75  OE1      -12.7280   45.6920   44.2460 O.co2  25  GLU25      -0.2457
     76  OE2      -11.9300   46.9140   42.5950 O.co2  25  GLU25      -0.2457
     77  N        -17.4200   44.8920   45.4330 N.am   26  TYR26      -0.1974
     78  CA       -18.6760   44.3580   45.9230 C.3    26  TYR26       0.1639
     79  C        -19.2070   45.2370   47.0360 C.2    26  TYR26       0.2290
     80  O        -18.5160   45.4710   48.0320 O.2    26  TYR26      -0.2864
     81  CB       -18.4530   42.9200   46.4200 C.3    26  TYR26       0.0560
     82  CG       -19.6230   42.3540   47.1820 C.ar   26  TYR26      -0.0198
     83  CD1      -20.7730   41.9320   46.5530 C.ar   26  TYR26      -0.0009
     84  CD2      -19.5730   42.2480   48.5790 C.ar   26  TYR26      -0.0009
     85  CE1      -21.8470   41.4300   47.2830 C.ar   26  TYR26       0.0417
     86  CE2      -20.6280   41.7450   49.3150 C.ar   26  TYR26       0.0417
     87  CZ       -21.7610   41.3050   48.6520 C.ar   26  TYR26       0.1957
     88  OH       -22.8300   40.7920   49.3250 O.3    26  TYR26      -0.2866
     89  N        -15.6150   35.1110   53.6890 N.3    35  ASP35      -0.1225
     90  CA       -16.3220   35.4350   52.4670 C.3    35  ASP35       0.1805
     91  C        -16.2110   36.9200   52.1050 C.2    35  ASP35       0.2598
     92  O        -16.4110   37.2850   50.9490 O.2    35  ASP35      -0.2718
     93  CB       -17.7720   34.9640   52.4990 C.3    35  ASP35       0.1424
     94  CG       -17.9230   33.4580   52.4960 C.2    35  ASP35       0.3668
     95  OD1      -17.1480   32.7840   51.8410 O.co2  35  ASP35      -0.2456
     96  OD2      -18.9320   32.9990   53.0870 O.co2  35  ASP35      -0.2456
     97  N        -15.9200   37.7820   53.0770 N.am   36  ASP36      -0.1960
     98  CA       -15.6950   39.1920   52.7900 C.3    36  ASP36       0.1840
     99  C        -14.3870   39.4770   52.0980 C.2    36  ASP36       0.2622
    100  O        -14.1660   40.6140   51.6620 O.2    36  ASP36      -0.2715
    101  CB       -15.8490   40.0030   54.0910 C.3    36  ASP36       0.1450
    102  CG       -17.2280   39.9040   54.6690 C.2    36  ASP36       0.3671
    103  OD1      -18.2020   39.8490   53.8920 O.co2  36  ASP36      -0.2456
    104  OD2      -17.3440   39.9330   55.9120 O.co2  36  ASP36      -0.2456
    105  N        -13.5080   38.4770   51.9810 N.am   37  GLU37      -0.1963
    106  CA       -12.2290   38.6170   51.3010 C.3    37  GLU37       0.1733
    107  C        -12.1760   37.8200   49.9900 C.2    37  GLU37       0.2616
    108  O        -11.1040   37.6510   49.4170 O.2    37  GLU37      -0.2715
    109  CB       -11.0820   38.2170   52.2150 C.3    37  GLU37       0.0429
    110  CG       -10.9820   39.0460   53.4930 C.3    37  GLU37       0.1163
    111  CD        -9.8780   38.4670   54.3770 C.2    37  GLU37       0.3649
    112  OE1       -8.7360   38.4890   53.9890 O.co2  37  GLU37      -0.2457
    113  OE2      -10.1430   37.8660   55.4270 O.co2  37  GLU37      -0.2457
    114  N        -13.3300   37.3600   49.5350 N.am   38  MET38      -0.1963
    115  CA       -13.4460   36.5320   48.3250 C.3    38  MET38       0.1736
    116  C        -14.6220   37.0150   47.5020 C.2    38  MET38       0.2616
    117  O        -15.5870   37.5690   48.0260 O.2    38  MET38      -0.2715
    118  CB       -13.6150   35.0530   48.7150 C.3    38  MET38       0.0427
    119  CG       -12.5400   34.5250   49.6240 C.3    38  MET38       0.0599
    120  SD       -12.5800   32.7340   49.8910 S.3    38  MET38      -0.1393
    121  CE       -14.0920   32.6200   50.8600 C.3    38  MET38       0.0692
    122  N        -14.5470   36.7770   46.1930 N.am   39  MET39      -0.1977
    123  CA       -15.5290   37.3120   45.3050 C.3    39  MET39       0.1605
    124  C        -15.5490   36.4520   44.0140 C.2    39  MET39       0.2287
    125  O        -14.4850   36.0760   43.5380 O.2    39  MET39      -0.2864
    126  CB       -15.1470   38.8160   45.0590 C.3    39  MET39       0.0413
    127  CG       -16.3860   39.6750   44.6270 C.3    39  MET39       0.0598
    128  SD       -15.8990   41.1570   43.7940 S.3    39  MET39      -0.1393
    129  CE       -15.4780   40.5420   42.1490 C.3    39  MET39       0.0692
    130  N        -16.5280   37.2870   40.1410 N.3    41  LYS41      -0.1245
    131  CA       -16.8620   38.2960   39.1510 C.3    41  LYS41       0.1561
    132  C        -17.3170   37.6050   37.8740 C.2    41  LYS41       0.2260
    133  O        -16.6870   36.6000   37.4760 O.2    41  LYS41      -0.2867
    134  CB       -15.6260   39.1520   38.8430 C.3    41  LYS41       0.0271
    135  CG       -15.8130   40.2610   37.8490 C.3    41  LYS41       0.0035
    136  CD       -14.5180   40.9830   37.5550 C.3    41  LYS41       0.0206
    137  CE       -14.6680   42.0130   36.4760 C.3    41  LYS41       0.1093
    138  NZ       -13.3610   42.5440   36.1140 N.3    41  LYS41      -0.1314
@<TRIPOS>BOND
     1     6     5    1
     2   138   137    1
     3   137   136    1
     4     1     2    1
     5     5     2    1
     6     5     7    1
     7   133   132    2
     8     2     3    1
     9   136   135    1
    10   135   134    1
    11   132   131    1
    12   134   131    1
    13     3     4    2
    14   131   130    1
    15    18    16   ar
    16    18    17   ar
    17    16    14   ar
    18    17    15   ar
    19    14    13   ar
    20    15    13   ar
    21   129   128    1
    22    13    12    1
    23    73    72    1
    24    73    74    1
    25     8     9    1
    26    76    74   ar
    27    72    69    1
    28    74    75   ar
    29    51    49    1
    30     9    12    1
    31     9    10    1
    32   125   124    2
    33   128   127    1
    34    67    66    1
    35   124   123    1
    36    28    27   ar
    37    28    26   ar
    38    71    70    2
    39    27    25   ar
    40    66    65    1
    41    69    70    1
    42    69    68    1
    43    49    48    2
    44    49    50    1
    45    70    77   am
    46   127   126    1
    47    10    11    2
    48   126   123    1
    49    48    47    1
    50    26    24   ar
    51   123   122    1
    52    25    24   ar
    53    68    61   am
    54    77    78    1
    55    65    64    1
    56    64    63    1
    57    78    81    1
    58    78    79    1
    59    24    23    1
    60   122   116   am
    61    61    62    2
    62    61    60    1
    63    47    46    1
    64    81    82    1
    65    46    45    1
    66    83    82   ar
    67    83    85   ar
    68    79    80    2
    69    63    60    1
    70    82    84   ar
    71    85    87   ar
    72    60    59    1
    73    23    20    1
    74   116   117    2
    75   116   115    1
    76    59    54   am
    77    45    42    1
    78    19    20    1
    79    20    21    1
    80   115   118    1
    81   115   114    1
    82    34    33    1
    83    84    86   ar
    84    87    86   ar
    85    87    88    1
    86    54    53    1
    87    54    55    2
    88   118   119    1
    89    53    56    1
    90    53    52    1
    91    42    43    1
    92    42    41    1
    93    44    43    2
    94   108   107    2
    95   114   107   am
    96    56    57    1
    97    33    30    1
    98   119   120    1
    99    21    22    2
   100    52    58    1
   101   120   121    1
   102    41    37   am
   103   107   106    1
   104    57    58    1
   105    30    31    1
   106    30    29    1
   107    92    91    2
   108    40    39    1
   109    37    38    2
   110    37    36    1
   111   106   105    1
   112   106   109    1
   113    35    31   am
   114    35    36    1
   115    31    32    2
   116   100    99    2
   117    95    94   ar
   118    36    39    1
   119   105    99   am
   120    99    98    1
   121    91    90    1
   122    91    97   am
   123   109   110    1
   124    90    93    1
   125    90    89    1
   126    94    93    1
   127    94    96   ar
   128    98    97    1
   129    98   101    1
   130   110   111    1
   131   103   102   ar
   132   112   111   ar
   133   101   102    1
   134   111   113   ar
   135   102   104   ar
