@<TRIPOS>MOLECULE
tmp/1xfcA00.pdb
 135 128 0 0 0
SMALL
GASTEIGER

@<TRIPOS>ATOM
      1  N         24.1530   -5.4230    9.8400 N.3    30  VAL30      -0.1245
      2  CA        25.5390   -5.3550    9.3540 C.3    30  VAL30       0.1561
      3  C         26.3610   -4.3540   10.1510 C.2    30  VAL30       0.2260
      4  O         26.0390   -3.1690   10.1980 O.2    30  VAL30      -0.2867
      5  CB        25.5650   -5.0420    7.8400 C.3    30  VAL30       0.0252
      6  CG1       26.9940   -4.9620    7.3150 C.3    30  VAL30       0.0019
      7  CG2       24.7690   -6.1030    7.0840 C.3    30  VAL30       0.0019
      8  N         29.9250   -4.2380   10.0430 N.3    32  LYS32      -0.1245
      9  CA        31.2870   -4.0940    9.5390 C.3    32  LYS32       0.1561
     10  C         31.8090   -2.6680    9.7500 C.2    32  LYS32       0.2260
     11  O         31.0380   -1.7790   10.1320 O.2    32  LYS32      -0.2867
     12  CB        31.3150   -4.4850    8.0630 C.3    32  LYS32       0.0271
     13  CG        30.7170   -3.4610    7.1170 C.3    32  LYS32       0.0035
     14  CD        30.6810   -3.9980    5.7010 C.3    32  LYS32       0.0206
     15  CE        30.0150   -3.0690    4.7200 C.3    32  LYS32       0.1093
     16  NZ        29.1670   -3.7730    3.7140 N.3    32  LYS32      -0.1314
     17  N         30.0570    0.7830   11.1760 N.3    36  TYR36      -0.1241
     18  CA        29.9620    1.9940   10.3570 C.3    36  TYR36       0.1605
     19  C         30.4040    3.2110   11.1740 C.2    36  TYR36       0.2264
     20  O         29.7850    4.2730   11.0420 O.2    36  TYR36      -0.2867
     21  CB        28.5500    2.2600    9.8280 C.3    36  TYR36       0.0534
     22  CG        28.0560    1.4070    8.6740 C.ar   36  TYR36      -0.0201
     23  CD1       28.4380    0.0730    8.5750 C.ar   36  TYR36      -0.0009
     24  CD2       27.2070    1.8960    7.6930 C.ar   36  TYR36      -0.0009
     25  CE1       28.0020   -0.7350    7.5460 C.ar   36  TYR36       0.0417
     26  CE2       26.7580    1.1040    6.6420 C.ar   36  TYR36       0.0417
     27  CZ        27.1660   -0.2150    6.5780 C.ar   36  TYR36       0.1957
     28  OH        26.7490   -1.0320    5.5560 O.3    36  TYR36      -0.2866
     29  N         32.2390  -12.3010    5.0640 N.3    78  TRP78      -0.1241
     30  CA        32.1550  -12.5460    3.6270 C.3    78  TRP78       0.1605
     31  C         33.2880  -11.9860    2.7830 C.2    78  TRP78       0.2264
     32  O         33.2470  -12.1330    1.5510 O.2    78  TRP78      -0.2867
     33  CB        30.8360  -11.9530    3.1060 C.3    78  TRP78       0.0550
     34  CG        30.5780  -10.5090    3.3990 C.ar   78  TRP78       0.0003
     35  CD1       31.2230   -9.3940    2.9380 C.ar   78  TRP78       0.0946
     36  CD2       29.5430  -10.0180    4.2610 C.ar   78  TRP78       0.0152
     37  NE1       30.6690   -8.2410    3.4560 N.ar   78  TRP78      -0.2442
     38  CE2       29.6250   -8.6110    4.2740 C.ar   78  TRP78       0.0810
     39  CE3       28.5560  -10.6490    5.0220 C.ar   78  TRP78       0.0012
     40  CZ2       28.7500   -7.8200    5.0250 C.ar   78  TRP78       0.0191
     41  CZ3       27.6890   -9.8590    5.7650 C.ar   78  TRP78       0.0001
     42  CH2       27.7930   -8.4590    5.7620 C.ar   78  TRP78       0.0015
     43  N         28.3640  -16.9240   -1.7060 N.3   123  LYS123     -0.1245
     44  CA        28.1090  -15.6010   -2.2670 C.3   123  LYS123      0.1561
     45  C         28.2450  -15.6850   -3.7920 C.2   123  LYS123      0.2260
     46  O         29.3380  -15.9440   -4.2870 O.2   123  LYS123     -0.2867
     47  CB        29.0420  -14.5540   -1.6780 C.3   123  LYS123      0.0271
     48  CG        28.8020  -13.0950   -2.0310 C.3   123  LYS123      0.0035
     49  CD        29.7020  -12.2380   -1.1320 C.3   123  LYS123      0.0206
     50  CE        29.2650  -10.7840   -1.1300 C.3   123  LYS123      0.1093
     51  NZ        29.8710  -10.0310   -2.2640 N.3   123  LYS123     -0.1314
     52  N         32.2700   -7.7700   -8.7490 N.3   130  ARG130     -0.1245
     53  CA        33.5080   -7.5230   -8.0020 C.3   130  ARG130      0.1563
     54  C         34.0690   -8.8980   -7.6380 C.2   130  ARG130      0.2260
     55  O         35.1100   -9.3020   -8.1430 O.2   130  ARG130     -0.2867
     56  CB        33.2670   -6.6620   -6.7900 C.3   130  ARG130      0.0307
     57  CG        34.5770   -6.2180   -6.1290 C.3   130  ARG130      0.0489
     58  CD        34.4120   -5.6050   -4.7720 C.3   130  ARG130      0.2205
     59  NE        33.6820   -6.4520   -3.8460 N.pl3 130  ARG130     -0.0865
     60  CZ        32.4060   -6.2730   -3.5170 C.cat 130  ARG130      0.5346
     61  NH1       31.7020   -5.2260   -3.9560 N.pl3 130  ARG130      0.1354
     62  NH2       31.7480   -7.1890   -2.7980 N.pl3 130  ARG130      0.1354
     63  N         23.7260  -16.1030   -0.9730 N.3   160  MET160     -0.1245
     64  CA        23.5800  -14.6510   -0.8280 C.3   160  MET160      0.1570
     65  C         24.1290  -13.9700   -2.0640 C.2   160  MET160      0.2261
     66  O         24.9560  -14.4990   -2.8070 O.2   160  MET160     -0.2867
     67  CB        24.2830  -14.1350    0.4340 C.3   160  MET160      0.0387
     68  CG        25.7910  -14.0550    0.3020 C.3   160  MET160      0.0595
     69  SD        26.6690  -13.5320    1.7780 S.3   160  MET160     -0.1393
     70  CE        26.4940  -11.7460    1.6260 C.3   160  MET160      0.0692
     71  N         24.5920   -9.4960   -3.5900 N.3   162  HIS162     -0.1241
     72  CA        24.5300   -8.1060   -3.1320 C.3   162  HIS162      0.1621
     73  C         24.1810   -7.1650   -4.2810 C.2   162  HIS162      0.2264
     74  O         24.8410   -7.2190   -5.3200 O.2   162  HIS162     -0.2867
     75  CB        25.8670   -7.7180   -2.5090 C.3   162  HIS162      0.0745
     76  CG        25.9260   -6.4310   -1.7530 C.ar  162  HIS162      0.0817
     77  ND1       25.0300   -6.0770   -0.7730 N.ar  162  HIS162     -0.2268
     78  CD2       26.8020   -5.3980   -1.8300 C.ar  162  HIS162      0.1154
     79  CE1       25.3330   -4.8860   -0.2800 C.ar  162  HIS162      0.1986
     80  NE2       26.4140   -4.4500   -0.9070 N.ar  162  HIS162     -0.2212
     81  N         19.9900   -5.5560    0.9110 N.3   197  ASN197     -0.1225
     82  CA        20.6160   -4.5330    1.7360 C.3   197  ASN197      0.1785
     83  C         19.5670   -3.5490    2.2520 C.2   197  ASN197      0.2598
     84  O         18.3640   -3.7700    2.0710 O.2   197  ASN197     -0.2718
     85  CB        21.6860   -3.7950    0.9370 C.3   197  ASN197      0.1169
     86  CG        21.1570   -3.1750   -0.3410 C.2   197  ASN197      0.2627
     87  OD1       19.9510   -3.0950   -0.6090 O.2   197  ASN197     -0.2716
     88  ND2       22.0950   -2.7290   -1.1730 N.am  197  ASN197     -0.0877
     89  N         19.9610   -2.4550    2.8970 N.am  198  SER198     -0.1938
     90  CA        18.9860   -1.5290    3.4750 C.3   198  SER198      0.2055
     91  C         17.9810   -0.9970    2.4590 C.2   198  SER198      0.2643
     92  O         16.7700   -1.0090    2.6700 O.2   198  SER198     -0.2714
     93  CB        19.7020   -0.3230    4.0850 C.3   198  SER198      0.2130
     94  OG        20.3840   -0.7050    5.2620 O.3   198  SER198     -0.2179
     95  N         18.5100   -0.5250    1.3440 N.am  199  SER199     -0.1949
     96  CA        17.7090   -0.0060    0.2560 C.3   199  SER199      0.1924
     97  C         16.6590   -0.9900   -0.2370 C.2   199  SER199      0.2314
     98  O         15.4770   -0.6880   -0.4060 O.2   199  SER199     -0.2863
     99  CB        18.6640    0.3460   -0.9020 C.3   199  SER199      0.2116
    100  OG        17.8950    0.8390   -1.9850 O.3   199  SER199     -0.2180
    101  N         19.9050   -8.0240    5.0980 N.3   213  ARG213     -0.1245
    102  CA        21.1780   -7.6120    5.6800 C.3   213  ARG213      0.1563
    103  C         21.3490   -6.0960    5.6260 C.2   213  ARG213      0.2260
    104  O         22.1440   -5.6160    4.8070 O.2   213  ARG213     -0.2867
    105  CB        22.3710   -8.2140    4.9420 C.3   213  ARG213      0.0307
    106  CG        22.3140   -9.6650    4.5280 C.3   213  ARG213      0.0489
    107  CD        23.6830  -10.0870    3.9850 C.3   213  ARG213      0.2205
    108  NE        24.0190   -9.2290    2.8320 N.pl3 213  ARG213     -0.0865
    109  CZ        23.5040   -9.5310    1.6410 C.cat 213  ARG213      0.5346
    110  NH1       22.7160  -10.6020    1.5360 N.pl3 213  ARG213      0.1354
    111  NH2       23.7590   -8.7970    0.5710 N.pl3 213  ARG213      0.1354
    112  N         22.6440   -2.4260    6.6010 N.3   215  GLY215     -0.1210
    113  CA        23.6720   -1.7970    7.4290 C.3   215  GLY215      0.1956
    114  C         23.2640   -0.3470    7.6820 C.2   215  GLY215      0.2611
    115  O         22.8890    0.0140    8.7910 O.2   215  GLY215     -0.2717
    116  N         23.3410    0.4510    6.6260 N.am  216  ILE216     -0.1979
    117  CA        23.1730    1.9040    6.6940 C.3   216  ILE216      0.1595
    118  C         21.8890    2.2970    7.4170 C.2   216  ILE216      0.2287
    119  O         21.9310    3.2130    8.2470 O.2   216  ILE216     -0.2864
    120  CB        23.2650    2.4870    5.2700 C.3   216  ILE216      0.0276
    121  CG1       23.5990    3.9870    5.2260 C.3   216  ILE216      0.0022
    122  CG2       22.0210    2.2060    4.4460 C.3   216  ILE216      0.0022
    123  CD1       24.7760    4.3740    6.0980 C.3   216  ILE216      0.0001
    124  N         27.6540    7.4300    4.2770 N.3   349  TYR349     -0.1241
    125  CA        28.4440    6.2920    4.7290 C.3   349  TYR349      0.1605
    126  C         29.8600    6.7470    5.0670 C.2   349  TYR349      0.2264
    127  O         30.5060    6.3480    6.0320 O.2   349  TYR349     -0.2867
    128  CB        28.5910    5.2280    3.6520 C.3   349  TYR349      0.0534
    129  CG        27.4180    4.4650    3.1120 C.ar  349  TYR349     -0.0201
    130  CD1       26.4400    5.0550    2.3160 C.ar  349  TYR349     -0.0009
    131  CD2       27.3020    3.1140    3.3910 C.ar  349  TYR349     -0.0009
    132  CE1       25.3710    4.3110    1.8290 C.ar  349  TYR349      0.0417
    133  CE2       26.2510    2.3550    2.9160 C.ar  349  TYR349      0.0417
    134  CZ        25.2920    2.9680    2.1320 C.ar  349  TYR349      0.1957
    135  OH        24.2510    2.2020    1.6710 O.3   349  TYR349     -0.2866
@<TRIPOS>BOND
     1    52    53    1
     2    55    54    2
     3    53    54    1
     4    53    56    1
     5    56    57    1
     6    57    58    1
     7    74    73    2
     8    58    59    1
     9    46    45    2
    10    73    72    1
    11    61    60    1
    12    59    60    2
    13    45    44    1
    14    71    72    1
    15    60    62    1
    16    72    75    1
    17    66    65    2
    18    75    76    1
    19    44    43    1
    20    44    47    1
    21    51    50    1
    22    65    64    1
    23    48    47    1
    24    48    49    1
    25   100    99    1
    26    78    76   ar
    27    78    80   ar
    28    76    77   ar
    29    88    86   am
    30    49    50    1
    31    63    64    1
    32    80    79   ar
    33    99    96    1
    34    64    67    1
    35    77    79   ar
    36    87    86    2
    37    98    97    2
    38    86    85    1
    39    97    96    1
    40    96    95    1
    41    68    67    1
    42    68    69    1
    43   111   109    1
    44    81    82    1
    45    85    82    1
    46    95    91   am
    47   110   109    1
    48    32    31    2
    49    70    69    1
    50   109   108    2
    51   135   134    1
    52    82    83    1
    53   132   134   ar
    54   132   130   ar
    55    84    83    2
    56   134   133   ar
    57    83    89   am
    58   130   129   ar
    59    91    92    2
    60    91    90    1
    61    31    30    1
    62   108   107    1
    63    89    90    1
    64   133   131   ar
    65    35    34   ar
    66    35    37   ar
    67    33    34    1
    68    33    30    1
    69   129   131   ar
    70   129   128    1
    71    34    36   ar
    72    37    38   ar
    73    90    93    1
    74    30    29    1
    75   128   125    1
    76    16    15    1
    77   107   106    1
    78    93    94    1
    79    36    38   ar
    80    36    39   ar
    81    38    40   ar
    82   124   125    1
    83   122   120    1
    84   106   105    1
    85    15    14    1
    86   125   126    1
    87   104   103    2
    88   105   102    1
    89    39    41   ar
    90    40    42   ar
    91   126   127    2
    92   101   102    1
    93   121   120    1
    94   121   123    1
    95   120   117    1
    96    28    27    1
    97   103   102    1
    98    14    13    1
    99    42    41   ar
   100    27    26   ar
   101    27    25   ar
   102   112   113    1
   103   116   117    1
   104   116   114   am
   105    26    24   ar
   106   117   118    1
   107     7     5    1
   108    13    12    1
   109     6     5    1
   110   118   119    2
   111   113   114    1
   112    25    23   ar
   113   114   115    2
   114    24    22   ar
   115     5     2    1
   116    12     9    1
   117    23    22   ar
   118    22    21    1
   119     2     1    1
   120     2     3    1
   121     9    10    1
   122     9     8    1
   123    10    11    2
   124    21    18    1
   125     3     4    2
   126    18    19    1
   127    18    17    1
   128    20    19    2
