@<TRIPOS>MOLECULE
tmp/1xfdC02.pdb
 87 80 0 0 0
SMALL
GASTEIGER

@<TRIPOS>ATOM
      1  N          6.9990  128.8490   82.3990 N.3   251  ARG251     -0.1245
      2  CA         7.1390  129.4070   83.7360 C.3   251  ARG251      0.1563
      3  C          8.3770  130.3040   83.7930 C.2   251  ARG251      0.2260
      4  O          9.0500  130.4080   84.8180 O.2   251  ARG251     -0.2867
      5  CB         7.2150  128.2850   84.7750 C.3   251  ARG251      0.0307
      6  CG         8.2330  127.1980   84.5070 C.3   251  ARG251      0.0489
      7  CD         7.9630  126.0200   85.4410 C.3   251  ARG251      0.2205
      8  NE         9.1290  125.1650   85.6400 N.pl3 251  ARG251     -0.0865
      9  CZ         9.8490  124.6340   84.6570 C.cat 251  ARG251      0.5346
     10  NH1        9.5230  124.8690   83.3960 N.pl3 251  ARG251      0.1354
     11  NH2       10.8950  123.8680   84.9360 N.pl3 251  ARG251      0.1354
     12  N         12.7500  133.6570   86.9430 N.3   274  ASN274     -0.1240
     13  CA        11.4830  134.2800   86.5750 C.3   274  ASN274      0.1653
     14  C         11.0400  135.2990   87.6210 C.2   274  ASN274      0.2266
     15  O         11.3650  135.1590   88.7960 O.2   274  ASN274     -0.2867
     16  CB        10.4080  133.2030   86.4010 C.3   274  ASN274      0.1155
     17  CG        10.2400  132.3390   87.6390 C.2   274  ASN274      0.2627
     18  OD1       11.0550  132.5920   88.6570 O.2   274  ASN274     -0.2716
     19  ND2        9.3860  131.4540   87.6780 N.am  274  ASN274     -0.0877
     20  N          8.5620  135.7850   89.4350 N.3   276  ALA276     -0.1245
     21  CA         8.0350  135.2190   90.6760 C.3   276  ALA276      0.1562
     22  C          9.1560  134.6540   91.5410 C.2   276  ALA276      0.2260
     23  O          8.9650  134.3610   92.7230 O.2   276  ALA276     -0.2867
     24  CB         7.0230  134.1280   90.3590 C.3   276  ALA276      0.0290
     25  N         10.5890  131.7250   91.5520 N.3   278  ASN278     -0.1225
     26  CA        10.3130  130.3800   92.0420 C.3   278  ASN278      0.1785
     27  C         10.7560  129.3110   91.0450 C.2   278  ASN278      0.2597
     28  O         10.5410  128.1230   91.2650 O.2   278  ASN278     -0.2718
     29  CB         8.8190  130.2350   92.3520 C.3   278  ASN278      0.1169
     30  CG         7.9410  130.5700   91.1600 C.2   278  ASN278      0.2627
     31  OD1        8.2590  131.4670   90.3880 O.2   278  ASN278     -0.2716
     32  ND2        6.8270  129.8600   91.0090 N.am  278  ASN278     -0.0877
     33  N         11.3760  129.7430   89.9520 N.am  279  VAL279     -0.1980
     34  CA        11.8800  128.8310   88.9270 C.3   279  VAL279      0.1595
     35  C         13.1850  129.4030   88.3940 C.2   279  VAL279      0.2287
     36  O         13.2390  130.5620   87.9820 O.2   279  VAL279     -0.2864
     37  CB        10.8910  128.6660   87.7500 C.3   279  VAL279      0.0276
     38  CG1       11.5410  127.8530   86.6360 C.3   279  VAL279      0.0022
     39  CG2        9.6290  127.9710   88.2230 C.3   279  VAL279      0.0022
     40  N         13.3620  124.6810   91.1440 N.3   299  GLU299     -0.1231
     41  CA        12.1160  125.3560   91.4460 C.3   299  GLU299      0.1699
     42  C         11.8380  125.1070   92.9140 C.2   299  GLU299      0.2593
     43  O         12.2610  124.0980   93.4710 O.2   299  GLU299     -0.2718
     44  CB        10.9580  124.8840   90.5470 C.3   299  GLU299      0.0402
     45  CG        10.6640  123.3960   90.4750 C.3   299  GLU299      0.1161
     46  CD         9.5040  123.1010   89.5200 C.2   299  GLU299      0.3649
     47  OE1        9.5910  123.4950   88.3350 O.co2 299  GLU299     -0.2457
     48  OE2        8.5040  122.4850   89.9510 O.co2 299  GLU299     -0.2457
     49  N         11.1660  126.0550   93.5510 N.am  300  SER300     -0.1938
     50  CA        10.8630  125.9450   94.9660 C.3   300  SER300      0.2055
     51  C          9.4280  126.3510   95.2080 C.2   300  SER300      0.2643
     52  O          8.8070  126.9840   94.3570 O.2   300  SER300     -0.2714
     53  CB        11.7940  126.8560   95.7700 C.3   300  SER300      0.2130
     54  OG        11.4950  126.8060   97.1550 O.3   300  SER300     -0.2179
     55  N          8.8970  125.9750   96.3660 N.am  301  GLU301     -0.1963
     56  CA         7.5360  126.3450   96.7070 C.3   301  GLU301      0.1733
     57  C          7.5610  127.8080   97.1390 C.2   301  GLU301      0.2616
     58  O          6.7520  128.6140   96.6790 O.2   301  GLU301     -0.2715
     59  CB         6.9940  125.4490   97.8240 C.3   301  GLU301      0.0429
     60  CG         6.7660  124.0030   97.3920 C.3   301  GLU301      0.1163
     61  CD         5.8870  123.2320   98.3620 C.2   301  GLU301      0.3649
     62  OE1        4.6890  123.5740   98.4870 O.co2 301  GLU301     -0.2457
     63  OE2        6.3930  122.2850   99.0000 O.co2 301  GLU301     -0.2457
     64  N          8.5100  128.1520   98.0050 N.am  302  ALA302     -0.1977
     65  CA         8.6470  129.5260   98.4690 C.3   302  ALA302      0.1597
     66  C          9.3080  130.3540   97.3760 C.2   302  ALA302      0.2287
     67  O          8.6570  130.7670   96.4160 O.2   302  ALA302     -0.2864
     68  CB         9.4860  129.5740   99.7360 C.3   302  ALA302      0.0319
     69  N          7.7510  133.4200  104.5220 N.3   551  ARG551     -0.1245
     70  CA         7.0170  133.5750  103.2620 C.3   551  ARG551      0.1563
     71  C          5.5960  134.0680  103.5360 C.2   551  ARG551      0.2260
     72  O          4.8820  133.4920  104.3550 O.2   551  ARG551     -0.2867
     73  CB         6.9560  132.2340  102.5080 C.3   551  ARG551      0.0307
     74  CG         6.1040  132.2280  101.2160 C.3   551  ARG551      0.0489
     75  CD         6.8530  132.7790   99.9900 C.3   551  ARG551      0.2205
     76  NE         6.0610  132.7000   98.7560 N.pl3 551  ARG551     -0.0865
     77  CZ         6.5030  133.0540   97.5490 C.cat 551  ARG551      0.5346
     78  NH1        7.7370  133.5160   97.3990 N.pl3 551  ARG551      0.1354
     79  NH2        5.7130  132.9460   96.4850 N.pl3 551  ARG551      0.1354
     80  N          3.6920  137.4510   93.6280 N.3   633  LEU633     -0.1245
     81  CA         3.3260  138.5260   92.7180 C.3   633  LEU633      0.1561
     82  C          2.0860  139.2510   93.2120 C.2   633  LEU633      0.2260
     83  O          1.2590  138.6800   93.9240 O.2   633  LEU633     -0.2867
     84  CB         3.0940  137.9820   91.3090 C.3   633  LEU633      0.0270
     85  CG         4.3250  137.2810   90.7320 C.3   633  LEU633      0.0019
     86  CD1        4.5250  135.9580   91.4500 C.3   633  LEU633      0.0001
     87  CD2        4.1480  137.0430   89.2490 C.3   633  LEU633      0.0001
@<TRIPOS>BOND
     1     1     2    1
     2    10     9    1
     3     2     3    1
     4     2     5    1
     5     3     4    2
     6     6     5    1
     7     6     7    1
     8     9    11    1
     9     9     8    2
    10     7     8    1
    11    16    13    1
    12    16    17    1
    13    13    12    1
    14    13    14    1
    15    38    37    1
    16    14    15    2
    17    17    19   am
    18    17    18    2
    19    37    39    1
    20    37    34    1
    21    36    35    2
    22    47    46   ar
    23    35    34    1
    24    34    33    1
    25    87    85    1
    26    20    21    1
    27    46    48   ar
    28    46    45    1
    29    33    27   am
    30    24    21    1
    31    31    30    2
    32    45    44    1
    33    44    41    1
    34    21    22    1
    35    85    84    1
    36    85    86    1
    37    32    30   am
    38    27    28    2
    39    27    26    1
    40    40    41    1
    41    30    29    1
    42    84    81    1
    43    41    42    1
    44    22    23    2
    45    25    26    1
    46    26    29    1
    47    81    82    1
    48    81    80    1
    49    42    43    2
    50    42    49   am
    51    82    83    2
    52    49    50    1
    53    52    51    2
    54    50    51    1
    55    50    53    1
    56    51    55   am
    57    53    54    1
    58    55    56    1
    59    67    66    2
    60    79    77    1
    61    58    57    2
    62    56    57    1
    63    56    59    1
    64    57    64   am
    65    66    65    1
    66    60    59    1
    67    60    61    1
    68    78    77    1
    69    77    76    2
    70    64    65    1
    71    61    62   ar
    72    61    63   ar
    73    65    68    1
    74    76    75    1
    75    75    74    1
    76    74    73    1
    77    73    70    1
    78    70    71    1
    79    70    69    1
    80    71    72    2
