@<TRIPOS>MOLECULE
tmp/1xfdA02.pdb
 76 70 0 0 0
SMALL
GASTEIGER

@<TRIPOS>ATOM
      1  N         22.6560   30.9540   11.4890 N.3   276  ALA276     -0.1245
      2  CA        23.2130   31.4290   12.7530 C.3   276  ALA276      0.1562
      3  C         22.1140   31.9460   13.6780 C.2   276  ALA276      0.2260
      4  O         22.3270   32.1470   14.8780 O.2   276  ALA276     -0.2867
      5  CB        24.2290   32.5230   12.4860 C.3   276  ALA276      0.0290
      6  N         20.7120   34.8800   13.9130 N.3   278  ASN278     -0.1225
      7  CA        21.0020   36.1830   14.4980 C.3   278  ASN278      0.1785
      8  C         20.5490   37.3270   13.5890 C.2   278  ASN278      0.2597
      9  O         20.7790   38.4980   13.8860 O.2   278  ASN278     -0.2718
     10  CB        22.5000   36.2920   14.7910 C.3   278  ASN278      0.1169
     11  CG        23.3520   36.0410   13.5600 C.2   278  ASN278      0.2627
     12  OD1       23.0050   35.2090   12.7230 O.2   278  ASN278     -0.2716
     13  ND2       24.4760   36.7470   13.4560 N.am  278  ASN278     -0.0877
     14  N         19.9000   36.9780   12.4820 N.am  279  VAL279     -0.1980
     15  CA        19.3890   37.9640   11.5330 C.3   279  VAL279      0.1595
     16  C         18.0730   37.4320   10.9870 C.2   279  VAL279      0.2287
     17  O         18.0010   36.3020   10.5100 O.2   279  VAL279     -0.2864
     18  CB        20.3660   38.2010   10.3500 C.3   279  VAL279      0.0276
     19  CG1       19.7180   39.1020    9.3080 C.3   279  VAL279      0.0022
     20  CG2       21.6440   38.8430   10.8480 C.3   279  VAL279      0.0022
     21  N         17.9990   41.9640   14.0440 N.3   299  GLU299     -0.1231
     22  CA        19.2450   41.2570   14.2730 C.3   299  GLU299      0.1699
     23  C         19.5540   41.4040   15.7500 C.2   299  GLU299      0.2593
     24  O         19.1570   42.3830   16.3790 O.2   299  GLU299     -0.2718
     25  CB        20.3910   41.7780   13.3860 C.3   299  GLU299      0.0402
     26  CG        20.7000   43.2600   13.4190 C.3   299  GLU299      0.1161
     27  CD        21.8390   43.6130   12.4620 C.2   299  GLU299      0.3649
     28  OE1       21.7260   43.3030   11.2540 O.co2 299  GLU299     -0.2457
     29  OE2       22.8490   44.1960   12.9150 O.co2 299  GLU299     -0.2457
     30  N         20.2210   40.4050   16.3110 N.am  300  SER300     -0.1938
     31  CA        20.5510   40.4170   17.7250 C.3   300  SER300      0.2055
     32  C         21.9820   39.9820   17.9190 C.2   300  SER300      0.2643
     33  O         22.5780   39.3960   17.0230 O.2   300  SER300     -0.2714
     34  CB        19.6280   39.4620   18.4810 C.3   300  SER300      0.2130
     35  OG        19.9660   39.4070   19.8540 O.3   300  SER300     -0.2179
     36  N         22.5360   40.2790   19.0870 N.am  301  GLU301     -0.1963
     37  CA        23.8970   39.8740   19.3770 C.3   301  GLU301      0.1733
     38  C         23.8680   38.3880   19.7060 C.2   301  GLU301      0.2616
     39  O         24.6600   37.6090   19.1710 O.2   301  GLU301     -0.2715
     40  CB        24.4710   40.6860   20.5410 C.3   301  GLU301      0.0429
     41  CG        24.7090   42.1530   20.1980 C.3   301  GLU301      0.1163
     42  CD        25.6100   42.8530   21.2000 C.2   301  GLU301      0.3649
     43  OE1       26.8060   42.4970   21.2790 O.co2 301  GLU301     -0.2457
     44  OE2       25.1210   43.7560   21.9110 O.co2 301  GLU301     -0.2457
     45  N         22.9360   37.9930   20.5690 N.am  302  ALA302     -0.1977
     46  CA        22.7930   36.5900   20.9410 C.3   302  ALA302      0.1597
     47  C         22.1040   35.8380   19.8060 C.2   302  ALA302      0.2287
     48  O         22.7390   35.4680   18.8150 O.2   302  ALA302     -0.2864
     49  CB        21.9780   36.4670   22.2140 C.3   302  ALA302      0.0319
     50  N         23.7530   32.2670   26.6690 N.3   551  ARG551     -0.1245
     51  CA        24.4680   32.1980   25.3910 C.3   551  ARG551      0.1563
     52  C         25.8930   31.6850   25.6050 C.2   551  ARG551      0.2260
     53  O         26.6330   32.2060   26.4410 O.2   551  ARG551     -0.2867
     54  CB        24.5260   33.5860   24.7370 C.3   551  ARG551      0.0307
     55  CG        25.3560   33.6730   23.4400 C.3   551  ARG551      0.0489
     56  CD        24.5840   33.2200   22.1840 C.3   551  ARG551      0.2205
     57  NE        25.3540   33.3840   20.9440 N.pl3 551  ARG551     -0.0865
     58  CZ        24.8870   33.1170   19.7240 C.cat 551  ARG551      0.5346
     59  NH1       23.6480   32.6720   19.5710 N.pl3 551  ARG551      0.1354
     60  NH2       25.6550   33.2910   18.6550 N.pl3 551  ARG551      0.1354
     61  N         27.5830   28.9630   15.4640 N.3   633  LEU633     -0.1245
     62  CA        27.9270   27.9520   14.4730 C.3   633  LEU633      0.1561
     63  C         29.1680   27.1850   14.8910 C.2   633  LEU633      0.2260
     64  O         30.0140   27.7020   15.6190 O.2   633  LEU633     -0.2867
     65  CB        28.1430   28.5900   13.1020 C.3   633  LEU633      0.0270
     66  CG        26.9120   29.3360   12.5940 C.3   633  LEU633      0.0019
     67  CD1       26.7330   30.6050   13.4120 C.3   633  LEU633      0.0001
     68  CD2       27.0670   29.6760   11.1250 C.3   633  LEU633      0.0001
     69  N         34.3710   25.7430   12.3850 N.3   636  LEU636     -0.1245
     70  CA        35.6690   26.2690   12.8030 C.3   636  LEU636      0.1561
     71  C         35.7900   26.1140   14.3200 C.2   636  LEU636      0.2260
     72  O         36.4860   26.8840   14.9880 O.2   636  LEU636     -0.2867
     73  CB        35.7850   27.7460   12.4060 C.3   636  LEU636      0.0270
     74  CG        37.1570   28.4230   12.4850 C.3   636  LEU636      0.0019
     75  CD1       38.1480   27.7030   11.5780 C.3   636  LEU636      0.0001
     76  CD2       37.0200   29.8800   12.0710 C.3   636  LEU636      0.0001
@<TRIPOS>BOND
     1    19    18    1
     2    18    20    1
     3    18    15    1
     4    17    16    2
     5    16    15    1
     6    68    66    1
     7    28    27   ar
     8     1     2    1
     9    15    14    1
    10    75    74    1
    11    76    74    1
    12    69    70    1
    13    73    74    1
    14    73    70    1
    15    27    29   ar
    16    27    26    1
    17    14     8   am
    18     5     2    1
    19    66    65    1
    20    66    67    1
    21    12    11    2
    22     2     3    1
    23    70    71    1
    24    65    62    1
    25    25    26    1
    26    25    22    1
    27    13    11   am
    28    11    10    1
    29     8     9    2
    30     8     7    1
    31     3     4    2
    32     6     7    1
    33    21    22    1
    34    22    23    1
    35    71    72    2
    36    62    63    1
    37    62    61    1
    38     7    10    1
    39    63    64    2
    40    23    30   am
    41    23    24    2
    42    30    31    1
    43    33    32    2
    44    31    32    1
    45    31    34    1
    46    32    36   am
    47    34    35    1
    48    60    58    1
    49    48    47    2
    50    36    37    1
    51    39    38    2
    52    37    38    1
    53    37    40    1
    54    59    58    1
    55    38    45   am
    56    58    57    2
    57    47    46    1
    58    41    40    1
    59    41    42    1
    60    45    46    1
    61    46    49    1
    62    57    56    1
    63    42    43   ar
    64    42    44   ar
    65    56    55    1
    66    55    54    1
    67    54    51    1
    68    51    52    1
    69    51    50    1
    70    52    53    2
