@<TRIPOS>MOLECULE
tmp/1xfdD03.pdb
 95 87 0 0 0
SMALL
GASTEIGER

@<TRIPOS>ATOM
      1  N          6.5730  205.4540   87.2710 N.3   251  ARG251     -0.1245
      2  CA         6.7390  204.7350   88.5260 C.3   251  ARG251      0.1563
      3  C          5.5690  203.7750   88.7290 C.2   251  ARG251      0.2260
      4  O          5.1340  203.5150   89.8540 O.2   251  ARG251     -0.2867
      5  CB         6.8550  205.7250   89.6920 C.3   251  ARG251      0.0307
      6  CG         5.7660  206.7820   89.7810 C.3   251  ARG251      0.0489
      7  CD         6.2020  207.8690   90.7670 C.3   251  ARG251      0.2205
      8  NE         5.0880  208.6330   91.3230 N.pl3 251  ARG251     -0.0865
      9  CZ         4.1600  209.2410   90.5930 C.cat 251  ARG251      0.5346
     10  NH1        4.2110  209.1730   89.2720 N.pl3 251  ARG251      0.1354
     11  NH2        3.1820  209.9140   91.1830 N.pl3 251  ARG251      0.1354
     12  N          2.0610  199.8570   92.2960 N.3   274  ASN274     -0.1240
     13  CA         3.2350  199.3470   91.5960 C.3   274  ASN274      0.1653
     14  C          3.9240  198.2390   92.3890 C.2   274  ASN274      0.2266
     15  O          3.8670  198.2290   93.6150 O.2   274  ASN274     -0.2867
     16  CB         4.2210  200.4870   91.3310 C.3   274  ASN274      0.1155
     17  CG         4.6530  201.1940   92.6010 C.2   274  ASN274      0.2627
     18  OD1        4.0830  200.7910   93.7300 O.2   274  ASN274     -0.2716
     19  ND2        5.4870  202.0950   92.5650 N.am  274  ASN274     -0.0877
     20  N          6.7520  197.6740   93.5630 N.3   276  ALA276     -0.1245
     21  CA         7.5150  198.1180   94.7230 C.3   276  ALA276      0.1562
     22  C          6.5890  198.5150   95.8630 C.2   276  ALA276      0.2260
     23  O          7.0210  198.6590   97.0090 O.2   276  ALA276     -0.2867
     24  CB         8.4000  199.2820   94.3430 C.3   276  ALA276      0.0290
     25  N          5.1060  201.3540   96.5360 N.3   278  ASN278     -0.1225
     26  CA         5.4360  202.6400   97.1340 C.3   278  ASN278      0.1785
     27  C          4.7710  203.7980   96.3940 C.2   278  ASN278      0.2597
     28  O          5.0120  204.9610   96.7020 O.2   278  ASN278     -0.2718
     29  CB         6.9480  202.8220   97.1490 C.3   278  ASN278      0.1169
     30  CG         7.5520  202.6990   95.7750 C.2   278  ASN278      0.2627
     31  OD1        7.1140  201.8810   94.9650 O.2   278  ASN278     -0.2716
     32  ND2        8.5730  203.5020   95.5160 N.am  278  ASN278     -0.0877
     33  N          3.9360  203.4680   95.4150 N.am  279  VAL279     -0.1980
     34  CA         3.2040  204.4670   94.6400 C.3   279  VAL279      0.1595
     35  C          1.8300  203.8840   94.3250 C.2   279  VAL279      0.2287
     36  O          1.7210  202.7720   93.8090 O.2   279  VAL279     -0.2864
     37  CB         3.9140  204.8160   93.3140 C.3   279  VAL279      0.0276
     38  CG1        3.0260  205.7180   92.4760 C.3   279  VAL279      0.0022
     39  CG2        5.2270  205.5120   93.5930 C.3   279  VAL279      0.0022
     40  N          2.1270  208.2430   97.6170 N.3   299  GLU299     -0.1231
     41  CA         3.4250  207.6020   97.5620 C.3   299  GLU299      0.1699
     42  C          4.0040  207.6910   98.9590 C.2   299  GLU299      0.2593
     43  O          3.6780  208.6020   99.7160 O.2   299  GLU299     -0.2718
     44  CB         4.3500  208.2320   96.5070 C.3   299  GLU299      0.0402
     45  CG         4.5800  209.7290   96.5640 C.3   299  GLU299      0.1161
     46  CD         5.4980  210.1950   95.4340 C.2   299  GLU299      0.3649
     47  OE1        5.1640  209.9420   94.2540 O.co2 299  GLU299     -0.2457
     48  OE2        6.5520  210.8070   95.7200 O.co2 299  GLU299     -0.2457
     49  N          4.8260  206.7160   99.3150 N.am  300  SER300     -0.1938
     50  CA         5.4230  206.6750  100.6390 C.3   300  SER300      0.2055
     51  C          6.8870  206.3200  100.5270 C.2   300  SER300      0.2643
     52  O          7.3350  205.8220   99.4990 O.2   300  SER300     -0.2714
     53  CB         4.7120  205.6250  101.4970 C.3   300  SER300      0.2130
     54  OG         5.3050  205.5120  102.7780 O.3   300  SER300     -0.2179
     55  N          7.6390  206.5910  101.5850 N.am  301  GLU301     -0.1963
     56  CA         9.0480  206.2500  101.5810 C.3   301  GLU301      0.1733
     57  C          9.1550  204.7440  101.8170 C.2   301  GLU301      0.2616
     58  O          9.8620  204.0400  101.0940 O.2   301  GLU301     -0.2715
     59  CB         9.7950  207.0310  102.6630 C.3   301  GLU301      0.0429
     60  CG         9.8850  208.5240  102.3790 C.3   301  GLU301      0.1163
     61  CD        10.9220  209.2230  103.2400 C.2   301  GLU301      0.3649
     62  OE1       12.1290  208.9350  103.0720 O.co2 301  GLU301     -0.2457
     63  OE2       10.5280  210.0560  104.0860 O.co2 301  GLU301     -0.2457
     64  N          8.4330  204.2500  102.8180 N.am  302  ALA302     -0.1977
     65  CA         8.4350  202.8250  103.1240 C.3   302  ALA302      0.1597
     66  C          7.5750  202.0910  102.0960 C.2   302  ALA302      0.2287
     67  O          8.0230  201.8140  100.9800 O.2   302  ALA302     -0.2864
     68  CB         7.8910  202.5880  104.5280 C.3   302  ALA302      0.0319
     69  N         10.6970  198.3010  108.3140 N.3   551  ARG551     -0.1245
     70  CA        11.1540  198.3350  106.9210 C.3   551  ARG551      0.1563
     71  C         12.6140  197.8970  106.8340 C.2   551  ARG551      0.2260
     72  O         13.4690  198.4150  107.5490 O.2   551  ARG551     -0.2867
     73  CB        11.0200  199.7550  106.3450 C.3   551  ARG551      0.0307
     74  CG        11.5800  199.9580  104.9210 C.3   551  ARG551      0.0489
     75  CD        10.5960  199.5290  103.8170 C.3   551  ARG551      0.2205
     76  NE        11.0990  199.7960  102.4620 N.pl3 551  ARG551     -0.0865
     77  CZ        10.4130  199.5660  101.3420 C.cat 551  ARG551      0.5346
     78  NH1        9.1880  199.0650  101.4000 N.pl3 551  ARG551      0.1354
     79  NH2       10.9510  199.8350  100.1580 N.pl3 551  ARG551      0.1354
     80  N         12.4440  195.7890   96.4030 N.3   633  LEU633     -0.1245
     81  CA        12.6400  194.8530   95.3060 C.3   633  LEU633      0.1561
     82  C         13.9750  194.1400   95.4330 C.2   633  LEU633      0.2260
     83  O         14.9210  194.6660   96.0150 O.2   633  LEU633     -0.2867
     84  CB        12.5490  195.5740   93.9620 C.3   633  LEU633      0.0270
     85  CG        11.2010  196.2630   93.7440 C.3   633  LEU633      0.0019
     86  CD1       11.1140  197.4740   94.6520 C.3   633  LEU633      0.0001
     87  CD2       11.0510  196.6860   92.2990 C.3   633  LEU633      0.0001
     88  N         18.6510  193.1360   91.9040 N.3   636  LEU636     -0.1245
     89  CA        19.9760  193.7190   92.0940 C.3   636  LEU636      0.1561
     90  C         20.3990  193.4990   93.5480 C.2   636  LEU636      0.2260
     91  O         21.1740  194.2740   94.1150 O.2   636  LEU636     -0.2867
     92  CB        19.9320  195.2170   91.7730 C.3   636  LEU636      0.0270
     93  CG        21.2620  195.9580   91.6350 C.3   636  LEU636      0.0019
     94  CD1       22.0950  195.3480   90.5140 C.3   636  LEU636      0.0001
     95  CD2       20.9810  197.4060   91.3500 C.3   636  LEU636      0.0001
@<TRIPOS>BOND
     1     1     2    1
     2     2     3    1
     3     2     5    1
     4     3     4    2
     5    10     9    1
     6     5     6    1
     7     6     7    1
     8    94    93    1
     9     9    11    1
    10     9     8    2
    11     7     8    1
    12    16    13    1
    13    16    17    1
    14    95    93    1
    15    13    12    1
    16    13    14    1
    17    93    92    1
    18    92    89    1
    19    88    89    1
    20    89    90    1
    21    87    85    1
    22    14    15    2
    23    38    37    1
    24    19    17   am
    25    17    18    2
    26    37    39    1
    27    37    34    1
    28    90    91    2
    29    20    21    1
    30    85    84    1
    31    85    86    1
    32    36    35    2
    33    84    81    1
    34    47    46   ar
    35    35    34    1
    36    24    21    1
    37    34    33    1
    38    21    22    1
    39    31    30    2
    40    81    82    1
    41    81    80    1
    42    33    27   am
    43    82    83    2
    44    46    48   ar
    45    46    45    1
    46    32    30   am
    47    30    29    1
    48    22    23    2
    49    27    28    2
    50    27    26    1
    51    44    45    1
    52    44    41    1
    53    25    26    1
    54    26    29    1
    55    41    40    1
    56    41    42    1
    57    42    49   am
    58    42    43    2
    59    49    50    1
    60    52    51    2
    61    79    77    1
    62    51    50    1
    63    51    55   am
    64    50    53    1
    65    67    66    2
    66    58    57    2
    67    77    78    1
    68    77    76    2
    69    53    54    1
    70    56    55    1
    71    56    57    1
    72    56    59    1
    73    57    64   am
    74    66    65    1
    75    60    59    1
    76    60    61    1
    77    76    75    1
    78    64    65    1
    79    62    61   ar
    80    65    68    1
    81    61    63   ar
    82    75    74    1
    83    74    73    1
    84    73    70    1
    85    71    70    1
    86    71    72    2
    87    70    69    1
