@<TRIPOS>MOLECULE
tmp/1xfdB06.pdb
 82 78 0 0 0
SMALL
GASTEIGER

@<TRIPOS>ATOM
      1  N         68.5640  -28.5550   27.8490 N.3    44  VAL44      -0.1231
      2  CA        68.4690  -29.5440   28.9170 C.3    44  VAL44       0.1692
      3  C         69.6340  -30.5210   29.0830 C.2    44  VAL44       0.2591
      4  O         70.0020  -30.8480   30.2120 O.2    44  VAL44      -0.2718
      5  CB        67.1660  -30.3630   28.7890 C.3    44  VAL44       0.0266
      6  CG1       67.1650  -31.5050   29.7930 C.3    44  VAL44       0.0020
      7  CG2       65.9670  -29.4640   29.0320 C.3    44  VAL44       0.0020
      8  N         70.2110  -30.9950   27.9820 N.am   45  GLU45      -0.1979
      9  CA        71.3160  -31.9490   28.0750 C.3    45  GLU45       0.1602
     10  C         72.5510  -31.3800   28.7600 C.2    45  GLU45       0.2287
     11  O         73.2290  -32.0810   29.5150 O.2    45  GLU45      -0.2864
     12  CB        71.7000  -32.4740   26.6880 C.3    45  GLU45       0.0415
     13  CG        70.6250  -33.3290   26.0350 C.3    45  GLU45       0.1163
     14  CD        71.1560  -34.6530   25.5080 C.2    45  GLU45       0.3649
     15  OE1       72.1420  -34.6390   24.7420 O.co2  45  GLU45      -0.2457
     16  OE2       70.5840  -35.7090   25.8570 O.co2  45  GLU45      -0.2457
     17  N         62.4020  -37.7760   25.1690 N.3   422  ASP422     -0.1225
     18  CA        63.4110  -37.8120   26.2240 C.3   422  ASP422      0.1805
     19  C         63.0280  -37.0040   27.4550 C.2   422  ASP422      0.2597
     20  O         62.9410  -37.5380   28.5600 O.2   422  ASP422     -0.2718
     21  CB        64.7480  -37.3150   25.6720 C.3   422  ASP422      0.1424
     22  CG        65.3210  -38.2460   24.6120 C.2   422  ASP422      0.3668
     23  OD1       66.0840  -37.7680   23.7440 O.co2 422  ASP422     -0.2456
     24  OD2       65.0160  -39.4600   24.6540 O.co2 422  ASP422     -0.2456
     25  N         62.7980  -35.7130   27.2550 N.am  423  PHE423     -0.1976
     26  CA        62.4350  -34.8280   28.3510 C.3   423  PHE423      0.1639
     27  C         61.0480  -34.2620   28.0960 C.2   423  PHE423      0.2290
     28  O         60.4770  -34.4620   27.0220 O.2   423  PHE423     -0.2864
     29  CB        63.4480  -33.6900   28.4470 C.3   423  PHE423      0.0560
     30  CG        64.8660  -34.1300   28.2330 C.ar  423  PHE423     -0.0200
     31  CD1       65.4950  -34.9680   29.1490 C.ar  423  PHE423     -0.0042
     32  CD2       65.5660  -33.7280   27.0990 C.ar  423  PHE423     -0.0042
     33  CE1       66.8000  -35.4010   28.9380 C.ar  423  PHE423     -0.0003
     34  CE2       66.8720  -34.1550   26.8770 C.ar  423  PHE423     -0.0003
     35  CZ        67.4910  -34.9940   27.7990 C.ar  423  PHE423     -0.0000
     36  N         63.0380  -35.7240   32.8210 N.3   440  ASN440     -0.1225
     37  CA        63.4900  -36.5910   31.7230 C.3   440  ASN440      0.1785
     38  C         62.5270  -37.7800   31.6930 C.2   440  ASN440      0.2598
     39  O         62.5390  -38.6330   32.5770 O.2   440  ASN440     -0.2718
     40  CB        64.9710  -37.0430   31.8800 C.3   440  ASN440      0.1169
     41  CG        65.2390  -37.8210   33.1630 C.2   440  ASN440      0.2627
     42  OD1       64.6200  -37.5210   34.1890 O.2   440  ASN440     -0.2716
     43  ND2       66.1640  -38.7940   33.1620 N.am  440  ASN440     -0.0877
     44  N         61.6730  -37.7910   30.6720 N.am  441  THR441     -0.1939
     45  CA        60.6360  -38.8030   30.4730 C.3   441  THR441      0.2028
     46  C         60.7390  -40.1080   31.2690 C.2   441  THR441      0.2643
     47  O         59.8170  -40.4480   32.0120 O.2   441  THR441     -0.2714
     48  CB        60.4770  -39.1320   28.9740 C.3   441  THR441      0.1808
     49  OG1       59.2570  -39.8520   28.7700 O.3   441  THR441     -0.2208
     50  CG2       61.6460  -39.9660   28.4680 C.3   441  THR441      0.0379
     51  N         61.8400  -40.8410   31.1140 N.am  442  THR442     -0.1936
     52  CA        62.0330  -42.1000   31.8400 C.3   442  THR442      0.2028
     53  C         62.0750  -41.8370   33.3400 C.2   442  THR442      0.2642
     54  O         61.1170  -42.1040   34.0680 O.2   442  THR442     -0.2714
     55  CB        63.3640  -42.7920   31.4500 C.3   442  THR442      0.1808
     56  OG1       64.3920  -41.8030   31.3040 O.3   442  THR442     -0.2208
     57  CG2       63.2100  -43.5810   30.1560 C.3   442  THR442      0.0379
     58  N         63.2040  -41.2970   33.7790 N.am  443  ASP443     -0.1971
     59  CA        63.4490  -40.9790   35.1770 C.3   443  ASP443      0.1709
     60  C         62.2910  -40.3090   35.9400 C.2   443  ASP443      0.2293
     61  O         61.9380  -40.7600   37.0290 O.2   443  ASP443     -0.2864
     62  CB        64.7000  -40.1080   35.2670 C.3   443  ASP443      0.1436
     63  CG        65.3000  -40.0890   36.6490 C.2   443  ASP443      0.3671
     64  OD1       64.5630  -39.8090   37.6160 O.co2 443  ASP443     -0.2456
     65  OD2       66.5150  -40.3520   36.7650 O.co2 443  ASP443     -0.2456
     66  N         62.4690  -37.3730   37.0500 N.3   445  LYS445     -0.1245
     67  CA        63.1590  -36.4930   37.9800 C.3   445  LYS445      0.1561
     68  C         63.2110  -35.0350   37.5330 C.2   445  LYS445      0.2260
     69  O         63.6200  -34.7290   36.4140 O.2   445  LYS445     -0.2867
     70  CB        64.5740  -37.0310   38.1960 C.3   445  LYS445      0.0271
     71  CG        65.5480  -36.0770   38.8580 C.3   445  LYS445      0.0035
     72  CD        66.9590  -36.6680   38.8660 C.3   445  LYS445      0.0206
     73  CE        67.4560  -37.0130   37.4540 C.3   445  LYS445      0.1093
     74  NZ        67.6390  -35.8250   36.5650 N.3   445  LYS445     -0.1314
     75  N         64.5900  -32.1570   36.5990 N.3   447  MET447     -0.1245
     76  CA        65.9210  -31.7010   36.2280 C.3   447  MET447      0.1570
     77  C         66.1950  -30.2740   36.6770 C.2   447  MET447      0.2261
     78  O         67.3500  -29.8740   36.7920 O.2   447  MET447     -0.2867
     79  CB        66.1120  -31.8000   34.7220 C.3   447  MET447      0.0387
     80  CG        65.9990  -33.2050   34.1940 C.3   447  MET447      0.0595
     81  SD        66.4050  -33.2540   32.4480 S.3   447  MET447     -0.1393
     82  CE        64.8150  -32.9130   31.7460 C.3   447  MET447      0.0692
@<TRIPOS>BOND
     1    23    22   ar
     2    22    24   ar
     3    22    21    1
     4    15    14   ar
     5    17    18    1
     6    14    16   ar
     7    14    13    1
     8    21    18    1
     9    13    12    1
    10    18    19    1
    11    12     9    1
    12    34    32   ar
    13    34    35   ar
    14    28    27    2
    15    32    30   ar
    16    25    19   am
    17    25    26    1
    18    19    20    2
    19    35    33   ar
    20     1     2    1
    21     8     9    1
    22     8     3   am
    23     9    10    1
    24    27    26    1
    25    30    29    1
    26    30    31   ar
    27    26    29    1
    28    50    48    1
    29    10    11    2
    30    49    48    1
    31     5     2    1
    32     5     7    1
    33     5     6    1
    34     2     3    1
    35    33    31   ar
    36    48    45    1
    37     3     4    2
    38    57    55    1
    39    45    44    1
    40    45    46    1
    41    44    38   am
    42    51    46   am
    43    51    52    1
    44    46    47    2
    45    56    55    1
    46    55    52    1
    47    38    37    1
    48    38    39    2
    49    37    40    1
    50    37    36    1
    51    82    81    1
    52    52    53    1
    53    40    41    1
    54    81    80    1
    55    43    41   am
    56    41    42    2
    57    53    58   am
    58    53    54    2
    59    58    59    1
    60    80    79    1
    61    79    76    1
    62    59    62    1
    63    59    60    1
    64    62    63    1
    65    60    61    2
    66    76    75    1
    67    76    77    1
    68    69    68    2
    69    74    73    1
    70    63    65   ar
    71    63    64   ar
    72    77    78    2
    73    66    67    1
    74    73    72    1
    75    68    67    1
    76    67    70    1
    77    70    71    1
    78    71    72    1
