@<TRIPOS>MOLECULE
tmp/1xfgA00.pdb
 120 119 0 0 0
SMALL
GASTEIGER

@<TRIPOS>ATOM
      1  N          8.7560   30.3300   22.4500 N.3     1  CYS1       -0.1235
      2  CA        10.0930   30.2460   21.7550 C.3     1  CYS1        0.1677
      3  C         10.1520   31.0060   20.4340 C.2     1  CYS1        0.2270
      4  O         11.0570   31.8040   20.2330 O.2     1  CYS1       -0.2867
      5  CB        10.4560   28.7880   21.4830 C.3     1  CYS1        0.0956
      6  SG        12.1840   28.6140   21.0620 S.3     1  CYS1       -0.0801
      7  N          2.9940   30.8560   17.1470 N.3    71  HIS71      -0.1241
      8  CA         3.9840   30.6760   18.2010 C.3    71  HIS71       0.1621
      9  C          4.3780   29.2230   18.2090 C.2    71  HIS71       0.2264
     10  O          3.5250   28.3500   17.9680 O.2    71  HIS71      -0.2867
     11  CB         3.2840   30.9920   19.5080 C.3    71  HIS71       0.0745
     12  CG         4.1450   30.8650   20.7310 C.ar   71  HIS71       0.0817
     13  ND1        4.0950   29.7660   21.5690 N.ar   71  HIS71      -0.2268
     14  CD2        4.9930   31.7430   21.3180 C.ar   71  HIS71       0.1154
     15  CE1        4.9000   29.9730   22.6010 C.ar   71  HIS71       0.1986
     16  NE2        5.4750   31.1500   22.4590 N.ar   71  HIS71      -0.2212
     17  N          6.1190   26.8200   21.1080 N.3    73  ARG73      -0.1231
     18  CA         6.3410   26.9100   22.5290 C.3    73  ARG73       0.1694
     19  C          7.4340   25.9660   22.9840 C.2    73  ARG73       0.2592
     20  O          7.4950   24.8190   22.5560 O.2    73  ARG73      -0.2718
     21  CB         5.0480   26.4850   23.1990 C.3    73  ARG73       0.0321
     22  CG         5.0140   26.6110   24.6970 C.3    73  ARG73       0.0489
     23  CD         3.7300   26.0940   25.3400 C.3    73  ARG73       0.2205
     24  NE         3.7830   26.4110   26.7820 N.pl3  73  ARG73      -0.0865
     25  CZ         3.5540   25.5540   27.7430 C.cat  73  ARG73       0.5346
     26  NH1        3.0980   24.3460   27.4480 N.pl3  73  ARG73       0.1354
     27  NH2        3.6970   25.9280   29.0000 N.pl3  73  ARG73       0.1354
     28  N          8.2510   26.4410   23.9140 N.am   74  TRP74      -0.1976
     29  CA         9.0670   25.5510   24.7130 C.3    74  TRP74       0.1640
     30  C          8.5750   25.7180   26.1410 C.2    74  TRP74       0.2290
     31  O          8.8150   26.7630   26.7550 O.2    74  TRP74      -0.2864
     32  CB        10.5260   25.9850   24.6220 C.3    74  TRP74       0.0576
     33  CG        11.4580   25.0090   25.2500 C.ar   74  TRP74       0.0006
     34  CD1       11.3550   24.4480   26.4860 C.ar   74  TRP74       0.0946
     35  CD2       12.6550   24.4940   24.6710 C.ar   74  TRP74       0.0152
     36  NE1       12.4090   23.5930   26.7080 N.ar   74  TRP74      -0.2442
     37  CE2       13.2280   23.6070   25.6070 C.ar   74  TRP74       0.0810
     38  CE3       13.3130   24.6960   23.4490 C.ar   74  TRP74       0.0012
     39  CZ2       14.4230   22.9220   25.3590 C.ar   74  TRP74       0.0191
     40  CZ3       14.4990   24.0140   23.2040 C.ar   74  TRP74       0.0001
     41  CH2       15.0410   23.1370   24.1550 C.ar   74  TRP74       0.0015
     42  N          7.6040   26.2670   29.7950 N.3    76  THR76      -0.1203
     43  CA         8.2420   26.5090   31.0910 C.3    76  THR76       0.1994
     44  C          7.2270   26.4670   32.2220 C.2    76  THR76       0.2617
     45  O          7.5380   26.0020   33.3080 O.2    76  THR76      -0.2717
     46  CB         9.0480   27.8520   31.1560 C.3    76  THR76       0.1784
     47  OG1        8.1500   28.9560   31.0600 O.3    76  THR76      -0.2211
     48  CG2       10.0080   28.0410   29.9710 C.3    76  THR76       0.0376
     49  N          6.0230   26.9750   31.9940 N.am   77  HIS77      -0.1975
     50  CA         4.9900   27.0050   32.9710 C.3    77  HIS77       0.1656
     51  C          3.8050   26.2280   32.4610 C.2    77  HIS77       0.2291
     52  O          3.0650   26.7200   31.6290 O.2    77  HIS77      -0.2864
     53  CB         4.6030   28.4660   33.2480 C.3    77  HIS77       0.0771
     54  CG         5.6950   29.2280   33.9290 C.ar   77  HIS77       0.0820
     55  ND1        6.9440   29.3940   33.3680 N.ar   77  HIS77      -0.2267
     56  CD2        5.7810   29.7250   35.1880 C.ar   77  HIS77       0.1154
     57  CE1        7.7310   30.0260   34.2230 C.ar   77  HIS77       0.1986
     58  NE2        7.0520   30.2350   35.3350 N.ar   77  HIS77      -0.2212
     59  N          0.1540   28.3010   22.9440 N.3    86  HIS86      -0.1241
     60  CA        -0.3430   29.6060   22.5600 C.3    86  HIS86       0.1621
     61  C         -0.7700   29.6120   21.1210 C.2    86  HIS86       0.2264
     62  O         -0.5360   28.5930   20.4710 O.2    86  HIS86      -0.2867
     63  CB         0.8190   30.6280   22.5630 C.3    86  HIS86       0.0745
     64  CG         1.6530   30.6530   23.7970 C.ar   86  HIS86       0.0817
     65  ND1        2.5010   31.7090   24.1000 N.ar   86  HIS86      -0.2268
     66  CD2        1.8400   29.7290   24.7710 C.ar   86  HIS86       0.1154
     67  CE1        3.1390   31.4430   25.2270 C.ar   86  HIS86       0.1986
     68  NE2        2.7730   30.2410   25.6420 N.ar   86  HIS86      -0.2212
     69  N          3.4610   34.6340   23.5140 N.3    97  HIS97      -0.1226
     70  CA         4.4250   35.2170   24.4460 C.3    97  HIS97       0.1752
     71  C          5.7380   34.4020   24.4750 C.2    97  HIS97       0.2596
     72  O          5.6920   33.1690   24.5200 O.2    97  HIS97      -0.2718
     73  CB         3.7020   35.2220   25.8060 C.3    97  HIS97       0.0759
     74  CG         4.5970   35.3120   27.0020 C.ar   97  HIS97       0.0818
     75  ND1        4.5300   34.3950   28.0290 N.ar   97  HIS97      -0.2268
     76  CD2        5.5840   36.1890   27.3320 C.ar   97  HIS97       0.1154
     77  CE1        5.4180   34.7140   28.9600 C.ar   97  HIS97       0.1986
     78  NE2        6.0940   35.7810   28.5540 N.ar   97  HIS97      -0.2212
     79  N          6.9020   35.0730   24.4440 N.am   98  ASN98      -0.1960
     80  CA         8.1900   34.3580   24.6690 C.3    98  ASN98       0.1819
     81  C          8.6910   34.8130   25.9980 C.2    98  ASN98       0.2622
     82  O          8.6240   35.9880   26.2800 O.2    98  ASN98      -0.2715
     83  CB         9.2550   34.7140   23.6210 C.3    98  ASN98       0.1195
     84  CG         9.0040   34.0520   22.3320 C.2    98  ASN98       0.2630
     85  OD1        8.2500   33.0730   22.2670 O.2    98  ASN98      -0.2716
     86  ND2        9.6380   34.5420   21.2780 N.am   98  ASN98      -0.0877
     87  N          9.2520   33.9060   26.7750 N.am   99  GLY99      -0.1940
     88  CA         9.8550   34.3230   28.0430 C.3    99  GLY99       0.2014
     89  C          8.9780   33.9260   29.2040 C.2    99  GLY99       0.2638
     90  O          8.1690   33.0040   29.1010 O.2    99  GLY99      -0.2714
     91  N          9.1500   34.6120   30.3220 N.am  100  ILE100     -0.1977
     92  CA         8.4970   34.2200   31.5310 C.3   100  ILE100      0.1596
     93  C          7.9900   35.4480   32.2330 C.2   100  ILE100      0.2287
     94  O          8.6390   36.4890   32.2520 O.2   100  ILE100     -0.2864
     95  CB         9.4920   33.4990   32.4680 C.3   100  ILE100      0.0276
     96  CG1        9.9130   32.1590   31.8580 C.3   100  ILE100      0.0022
     97  CG2        8.8310   33.2930   33.8320 C.3   100  ILE100      0.0022
     98  CD1       11.0970   31.5300   32.5650 C.3   100  ILE100      0.0001
     99  N         -0.3980   28.2230   32.3000 N.3   122  THR122     -0.1203
    100  CA         0.7430   29.0390   31.8850 C.3   122  THR122      0.1994
    101  C          0.7860   30.3830   32.5960 C.2   122  THR122      0.2618
    102  O         -0.2220   30.8570   33.0380 O.2   122  THR122     -0.2717
    103  CB         0.7090   29.3320   30.3740 C.3   122  THR122      0.1784
    104  OG1       -0.4510   30.1560   30.0840 O.3   122  THR122     -0.2211
    105  CG2        0.5200   28.0290   29.5700 C.3   122  THR122      0.0376
    106  N          1.9730   30.9780   32.6500 N.am  123  ASP123     -0.1959
    107  CA         2.1140   32.3630   33.0660 C.3   123  ASP123      0.1840
    108  C          1.5550   33.2340   31.9560 C.2   123  ASP123      0.2622
    109  O          0.9000   34.2510   32.1890 O.2   123  ASP123     -0.2715
    110  CB         3.5910   32.6510   33.3530 C.3   123  ASP123      0.1450
    111  CG         4.5060   32.3520   32.1680 C.2   123  ASP123      0.3671
    112  OD1        4.2960   31.3550   31.4320 O.co2 123  ASP123     -0.2456
    113  OD2        5.5150   33.0310   31.9160 O.co2 123  ASP123     -0.2456
    114  N          1.7340   32.7920   30.7080 N.am  124  THR124     -0.1951
    115  CA         1.2240   33.5350   29.5530 C.3   124  THR124      0.1897
    116  C         -0.2240   33.9880   29.6470 C.2   124  THR124      0.2313
    117  O         -0.6010   35.1000   29.2210 O.2   124  THR124     -0.2863
    118  CB         1.3830   32.6400   28.2820 C.3   124  THR124      0.1794
    119  OG1        2.7640   32.3180   28.1630 O.3   124  THR124     -0.2208
    120  CG2        1.0010   33.4270   27.0060 C.3   124  THR124      0.0378
@<TRIPOS>BOND
     1     7     8    1
     2    10     9    2
     3     8     9    1
     4     8    11    1
     5    11    12    1
     6     4     3    2
     7     3     2    1
     8    62    61    2
     9    12    14   ar
    10    12    13   ar
    11     6     5    1
    12    17    18    1
    13    61    60    1
    14    86    84   am
    15    14    16   ar
    16     5     2    1
    17    13    15   ar
    18     2     1    1
    19    85    84    2
    20    84    83    1
    21    16    15   ar
    22    18    19    1
    23    18    21    1
    24    20    19    2
    25    60    63    1
    26    60    59    1
    27    63    64    1
    28    19    28   am
    29    21    22    1
    30    40    38   ar
    31    40    41   ar
    32    38    35   ar
    33    69    70    1
    34    83    80    1
    35    64    65   ar
    36    64    66   ar
    37    28    29    1
    38    65    67   ar
    39    41    39   ar
    40    79    71   am
    41    79    80    1
    42    70    71    1
    43    70    73    1
    44    71    72    2
    45    32    29    1
    46    32    33    1
    47    80    81    1
    48    35    33   ar
    49    35    37   ar
    50    22    23    1
    51    29    30    1
    52    66    68   ar
    53    67    68   ar
    54    33    34   ar
    55    23    24    1
    56    39    37   ar
    57    37    36   ar
    58    73    74    1
    59    81    82    2
    60    81    87   am
    61    30    31    2
    62    34    36   ar
    63    87    88    1
    64    24    25    2
    65    74    76   ar
    66    74    75   ar
    67   120   118    1
    68    76    78   ar
    69    26    25    1
    70    25    27    1
    71    75    77   ar
    72    88    89    1
    73   119   118    1
    74   118   115    1
    75    78    77   ar
    76    90    89    2
    77    89    91   am
    78   117   116    2
    79   115   116    1
    80   115   114    1
    81   105   103    1
    82    42    43    1
    83    48    46    1
    84   104   103    1
    85    91    92    1
    86   103   100    1
    87   114   108   am
    88    47    46    1
    89    43    46    1
    90    43    44    1
    91   112   111   ar
    92    92    93    1
    93    92    95    1
    94    52    51    2
    95    96    95    1
    96    96    98    1
    97   100    99    1
    98   100   101    1
    99   113   111   ar
   100   108   109    2
   101   108   107    1
   102    49    44   am
   103    49    50    1
   104   111   110    1
   105    44    45    2
   106    93    94    2
   107    51    50    1
   108    95    97    1
   109   101   106   am
   110   101   102    2
   111   106   107    1
   112    50    53    1
   113   107   110    1
   114    53    54    1
   115    55    54   ar
   116    55    57   ar
   117    54    56   ar
   118    57    58   ar
   119    56    58   ar
