@<TRIPOS>MOLECULE
tmp/1xfgB00.pdb
 112 111 0 0 0
SMALL
GASTEIGER

@<TRIPOS>ATOM
      1  N          8.7420   50.1730  -22.5320 N.3     1  CYS1       -0.1235
      2  CA        10.0530   50.2870  -21.8280 C.3     1  CYS1        0.1677
      3  C         10.1590   49.5350  -20.4920 C.2     1  CYS1        0.2270
      4  O         11.0870   48.7500  -20.2900 O.2     1  CYS1       -0.2867
      5  CB        10.3780   51.7680  -21.6010 C.3     1  CYS1        0.0956
      6  SG        12.0540   51.9230  -21.0640 S.3     1  CYS1       -0.0801
      7  N          2.9760   49.7030  -17.1530 N.3    71  HIS71      -0.1241
      8  CA         3.9880   49.8600  -18.1920 C.3    71  HIS71       0.1621
      9  C          4.4510   51.2980  -18.1980 C.2    71  HIS71       0.2264
     10  O          3.6630   52.1980  -17.9310 O.2    71  HIS71      -0.2867
     11  CB         3.3020   49.5420  -19.4970 C.3    71  HIS71       0.0745
     12  CG         4.1630   49.6520  -20.7210 C.ar   71  HIS71       0.0817
     13  ND1        4.1030   50.7460  -21.5710 N.ar   71  HIS71      -0.2268
     14  CD2        4.9950   48.7630  -21.3120 C.ar   71  HIS71       0.1154
     15  CE1        4.9200   50.5430  -22.5960 C.ar   71  HIS71       0.1986
     16  NE2        5.4530   49.3430  -22.4720 N.ar   71  HIS71      -0.2212
     17  N          6.2270   53.6680  -21.1100 N.3    73  ARG73      -0.1231
     18  CA         6.3650   53.5740  -22.5620 C.3    73  ARG73       0.1694
     19  C          7.4620   54.5370  -23.0380 C.2    73  ARG73       0.2592
     20  O          7.5420   55.6750  -22.5790 O.2    73  ARG73      -0.2718
     21  CB         5.0460   53.9770  -23.1690 C.3    73  ARG73       0.0321
     22  CG         5.0470   53.9430  -24.7040 C.3    73  ARG73       0.0489
     23  CD         3.7440   54.4210  -25.3430 C.3    73  ARG73       0.2205
     24  NE         3.8300   54.0760  -26.7720 N.pl3  73  ARG73      -0.0865
     25  CZ         3.5730   54.8950  -27.7720 C.cat  73  ARG73       0.5346
     26  NH1        3.1730   56.1370  -27.5450 N.pl3  73  ARG73       0.1354
     27  NH2        3.7020   54.4610  -29.0020 N.pl3  73  ARG73       0.1354
     28  N          8.3290   54.0510  -23.9240 N.am   74  TRP74      -0.1976
     29  CA         9.1920   54.9140  -24.7350 C.3    74  TRP74       0.1640
     30  C          8.7380   54.7210  -26.1930 C.2    74  TRP74       0.2290
     31  O          9.0600   53.6800  -26.8090 O.2    74  TRP74      -0.2864
     32  CB        10.6070   54.3990  -24.5740 C.3    74  TRP74       0.0576
     33  CG        11.6190   55.2430  -25.2820 C.ar   74  TRP74       0.0006
     34  CD1       11.5450   55.7050  -26.5650 C.ar   74  TRP74       0.0946
     35  CD2       12.8650   55.7010  -24.7600 C.ar   74  TRP74       0.0152
     36  NE1       12.6620   56.4490  -26.8640 N.ar   74  TRP74      -0.2442
     37  CE2       13.4930   56.4640  -25.7720 C.ar   74  TRP74       0.0810
     38  CE3       13.5180   55.5550  -23.5340 C.ar   74  TRP74       0.0012
     39  CZ2       14.7430   57.0690  -25.5970 C.ar   74  TRP74       0.0191
     40  CZ3       14.7550   56.1600  -23.3590 C.ar   74  TRP74       0.0001
     41  CH2       15.3560   56.9060  -24.3900 C.ar   74  TRP74       0.0015
     42  N          7.6690   54.1020  -29.8990 N.3    76  THR76      -0.1203
     43  CA         8.2690   53.8340  -31.1940 C.3    76  THR76       0.1994
     44  C          7.2160   53.9540  -32.2930 C.2    76  THR76       0.2617
     45  O          7.5050   54.4790  -33.3540 O.2    76  THR76      -0.2717
     46  CB         9.0060   52.4520  -31.2800 C.3    76  THR76       0.1784
     47  OG1        8.0600   51.3850  -31.1320 O.3    76  THR76      -0.2211
     48  CG2       10.0030   52.2590  -30.1430 C.3    76  THR76       0.0376
     49  N          5.9990   53.4710  -32.0470 N.am   77  HIS77      -0.1975
     50  CA         4.9580   53.4610  -33.0320 C.3    77  HIS77       0.1656
     51  C          3.7850   54.2550  -32.5290 C.2    77  HIS77       0.2291
     52  O          3.0470   53.7870  -31.6670 O.2    77  HIS77      -0.2864
     53  CB         4.5500   52.0170  -33.3050 C.3    77  HIS77       0.0771
     54  CG         5.6210   51.2410  -33.9920 C.ar   77  HIS77       0.0820
     55  ND1        6.8740   51.0740  -33.4520 N.ar   77  HIS77      -0.2267
     56  CD2        5.6620   50.6730  -35.2230 C.ar   77  HIS77       0.1154
     57  CE1        7.6330   50.4020  -34.2990 C.ar   77  HIS77       0.1986
     58  NE2        6.9210   50.1470  -35.3820 N.ar   77  HIS77      -0.2212
     59  N          0.2460   52.2750  -22.9100 N.3    86  HIS86      -0.1241
     60  CA        -0.2060   50.9360  -22.5360 C.3    86  HIS86       0.1621
     61  C         -0.9280   51.0830  -21.1970 C.2    86  HIS86       0.2264
     62  O         -0.5600   51.9970  -20.4980 O.2    86  HIS86      -0.2867
     63  CB         0.9760   49.9440  -22.4820 C.3    86  HIS86       0.0745
     64  CG         1.7560   49.8700  -23.7480 C.ar   86  HIS86       0.0817
     65  ND1        2.6080   48.8190  -24.0490 N.ar   86  HIS86      -0.2268
     66  CD2        1.8910   50.7690  -24.7580 C.ar   86  HIS86       0.1154
     67  CE1        3.1980   49.0570  -25.2140 C.ar   86  HIS86       0.1986
     68  NE2        2.7920   50.2410  -25.6570 N.ar   86  HIS86      -0.2212
     69  N          3.4210   45.8790  -23.4570 N.3    97  HIS97      -0.1226
     70  CA         4.3770   45.3170  -24.4210 C.3    97  HIS97       0.1752
     71  C          5.6600   46.1170  -24.4680 C.2    97  HIS97       0.2596
     72  O          5.6210   47.3470  -24.5500 O.2    97  HIS97      -0.2718
     73  CB         3.6620   45.3350  -25.7890 C.3    97  HIS97       0.0759
     74  CG         4.5720   45.2390  -26.9730 C.ar   97  HIS97       0.0818
     75  ND1        4.4530   46.0850  -28.0560 N.ar   97  HIS97      -0.2268
     76  CD2        5.5750   44.3740  -27.2730 C.ar   97  HIS97       0.1154
     77  CE1        5.3540   45.7560  -28.9730 C.ar   97  HIS97       0.1986
     78  NE2        6.0590   44.7280  -28.5200 N.ar   97  HIS97      -0.2212
     79  N          6.8000   45.4290  -24.4460 N.am   98  ASN98      -0.1960
     80  CA         8.0800   46.1050  -24.7010 C.3    98  ASN98       0.1819
     81  C          8.6230   45.6300  -26.0260 C.2    98  ASN98       0.2621
     82  O          8.5300   44.4450  -26.3120 O.2    98  ASN98      -0.2715
     83  CB         9.1290   45.7320  -23.6680 C.3    98  ASN98       0.1195
     84  CG         8.9070   46.4250  -22.3280 C.2    98  ASN98       0.2630
     85  OD1        8.2000   47.4150  -22.2420 O.2    98  ASN98      -0.2716
     86  ND2        9.5390   45.9100  -21.2920 N.am   98  ASN98      -0.0877
     87  N          9.2450   46.5190  -26.7870 N.am   99  GLY99      -0.1954
     88  CA         9.7820   46.1230  -28.1130 C.3    99  GLY99       0.1869
     89  C          8.8760   46.4980  -29.2590 C.2    99  GLY99       0.2309
     90  O          8.0580   47.4100  -29.1600 O.2    99  GLY99      -0.2863
     91  N         -0.3890   52.3050  -32.2820 N.3   122  THR122     -0.1203
     92  CA         0.7360   51.4870  -31.8570 C.3   122  THR122      0.1994
     93  C          0.7600   50.1330  -32.5800 C.2   122  THR122      0.2618
     94  O         -0.2690   49.6540  -32.9920 O.2   122  THR122     -0.2717
     95  CB         0.6800   51.2510  -30.3320 C.3   122  THR122      0.1784
     96  OG1       -0.4370   50.4110  -30.0410 O.3   122  THR122     -0.2211
     97  CG2        0.3170   52.5590  -29.6000 C.3   122  THR122      0.0376
     98  N          1.9410   49.5430  -32.6890 N.am  123  ASP123     -0.1959
     99  CA         2.0650   48.1370  -33.0590 C.3   123  ASP123      0.1840
    100  C          1.4840   47.2740  -31.9340 C.2   123  ASP123      0.2622
    101  O          0.7990   46.2880  -32.1610 O.2   123  ASP123     -0.2715
    102  CB         3.5220   47.7830  -33.3270 C.3   123  ASP123      0.1450
    103  CG         4.4230   48.0980  -32.1610 C.2   123  ASP123      0.3671
    104  OD1        4.1570   49.1090  -31.4710 O.co2 123  ASP123     -0.2456
    105  OD2        5.4450   47.4280  -31.8690 O.co2 123  ASP123     -0.2456
    106  N          1.6750   47.7100  -30.6950 N.am  124  THR124     -0.1951
    107  CA         1.1100   46.9790  -29.5520 C.3   124  THR124      0.1897
    108  C         -0.3400   46.5590  -29.6290 C.2   124  THR124      0.2313
    109  O         -0.7110   45.4680  -29.1580 O.2   124  THR124     -0.2863
    110  CB         1.3300   47.8790  -28.2610 C.3   124  THR124      0.1794
    111  OG1        2.6960   48.2190  -28.1930 O.3   124  THR124     -0.2208
    112  CG2        0.9680   47.1000  -26.9630 C.3   124  THR124      0.0378
@<TRIPOS>BOND
     1    58    56   ar
     2    58    57   ar
     3    56    54   ar
     4    57    55   ar
     5    54    55   ar
     6    54    53    1
     7    45    44    2
     8   102    99    1
     9   102   103    1
    10    53    50    1
    11    99    98    1
    12    99   100    1
    13    50    51    1
    14    50    49    1
    15    94    93    2
    16    98    93   am
    17    93    92    1
    18    51    52    2
    19    44    49   am
    20    44    43    1
    21    91    92    1
    22   101   100    2
    23   103   105   ar
    24   103   104   ar
    25   100   106   am
    26    92    95    1
    27    46    43    1
    28    46    47    1
    29    46    48    1
    30    43    42    1
    31   106   107    1
    32    95    96    1
    33    95    97    1
    34   108   107    1
    35   108   109    2
    36   107   110    1
    37    89    90    2
    38    89    88    1
    39    27    25    1
    40    77    78   ar
    41    77    75   ar
    42    78    76   ar
    43   110   111    1
    44   110   112    1
    45    88    87    1
    46    75    74   ar
    47    25    26    1
    48    25    24    2
    49    76    74   ar
    50    74    73    1
    51    36    34   ar
    52    36    37   ar
    53    31    30    2
    54    87    81   am
    55    24    23    1
    56    34    33   ar
    57    82    81    2
    58    30    29    1
    59    81    80    1
    60    73    70    1
    61    37    39   ar
    62    37    35   ar
    63    68    67   ar
    64    68    66   ar
    65    39    41   ar
    66    23    22    1
    67    33    35   ar
    68    33    32    1
    69    67    65   ar
    70    35    38   ar
    71    66    64   ar
    72    29    32    1
    73    29    28    1
    74    22    21    1
    75    80    79    1
    76    80    83    1
    77    72    71    2
    78    71    79   am
    79    71    70    1
    80    70    69    1
    81    41    40   ar
    82    65    64   ar
    83    28    19   am
    84    64    63    1
    85    83    84    1
    86    38    40   ar
    87    21    18    1
    88    19    20    2
    89    19    18    1
    90    59    60    1
    91    15    16   ar
    92    15    13   ar
    93    18    17    1
    94    60    63    1
    95    60    61    1
    96     1     2    1
    97    16    14   ar
    98    84    85    2
    99    84    86   am
   100     2     5    1
   101     2     3    1
   102     5     6    1
   103    13    12   ar
   104    14    12   ar
   105    61    62    2
   106    12    11    1
   107     3     4    2
   108    11     8    1
   109     9     8    1
   110     9    10    2
   111     8     7    1
