@<TRIPOS>MOLECULE
tmp/1xfvD00.pdb
 162 153 0 0 0
SMALL
GASTEIGER

@<TRIPOS>ATOM
      1  N        122.9930  203.2970  100.3470 N.3   266  ARG266     -0.1231
      2  CA       121.6700  203.8990  100.3340 C.3   266  ARG266      0.1679
      3  C        121.9250  205.2050   99.5870 C.2   266  ARG266      0.2434
      4  O        123.0650  205.5240   99.2380 O.2   266  ARG266     -0.2733
      5  CB       121.1540  204.1780  101.7410 C.3   266  ARG266      0.0321
      6  CG       120.8300  202.9400  102.5060 C.3   266  ARG266      0.0489
      7  CD       119.8470  203.2300  103.6180 C.3   266  ARG266      0.2205
      8  NE       120.4380  204.0130  104.6960 N.pl3 266  ARG266     -0.0865
      9  CZ       119.9620  205.1710  105.1290 C.cat 266  ARG266      0.5346
     10  NH1      118.8810  205.6990  104.5750 N.pl3 266  ARG266      0.1354
     11  NH2      120.5570  205.7870  106.1380 N.pl3 266  ARG266      0.1354
     12  N        120.8840  205.9930   99.3430 N.am  267  PRO267     -0.2729
     13  CA       121.1440  207.2260   98.6170 C.3   267  PRO267      0.1401
     14  C        121.9920  208.2390   99.3330 C.2   267  PRO267      0.2269
     15  O        121.6820  208.6620  100.4530 O.2   267  PRO267     -0.2865
     16  CB       119.7480  207.7710   98.3360 C.3   267  PRO267      0.0296
     17  CG       118.9010  206.5600   98.3310 C.3   267  PRO267      0.0237
     18  CD       119.4430  205.7980   99.5110 C.3   267  PRO267      0.0939
     19  N        129.5600  213.2260  107.9930 N.3   283  LYS283     -0.1245
     20  CA       128.9050  213.0160  109.2840 C.3   283  LYS283      0.1561
     21  C        129.1260  211.6190  109.8420 C.2   283  LYS283      0.2260
     22  O        128.8150  210.6170  109.2070 O.2   283  LYS283     -0.2867
     23  CB       127.4000  213.2910  109.1800 C.3   283  LYS283      0.0271
     24  CG       126.5720  212.9350  110.4130 C.3   283  LYS283      0.0035
     25  CD       125.2960  213.7660  110.4120 C.3   283  LYS283      0.0206
     26  CE       124.1530  213.0670  111.1140 C.3   283  LYS283      0.1093
     27  NZ       122.8420  213.5390  110.5550 N.3   283  LYS283     -0.1314
     28  N        129.1920  209.1570  113.6770 N.3   285  LEU285     -0.1245
     29  CA       128.2210  208.7670  114.6760 C.3   285  LEU285      0.1561
     30  C        128.0160  209.8120  115.7580 C.2   285  LEU285      0.2260
     31  O        126.9390  209.9340  116.3450 O.2   285  LEU285     -0.2867
     32  CB       128.6460  207.4430  115.2800 C.3   285  LEU285      0.0270
     33  CG       127.9750  206.3270  114.4840 C.3   285  LEU285      0.0019
     34  CD1      128.4970  204.9520  114.8970 C.3   285  LEU285      0.0001
     35  CD2      126.4750  206.4470  114.7170 C.3   285  LEU285      0.0001
     36  N        124.3410  214.2850  115.1820 N.3   288  HIS288     -0.1241
     37  CA       122.9650  213.8940  114.8630 C.3   288  HIS288      0.1621
     38  C        122.1260  215.0980  114.4410 C.2   288  HIS288      0.2264
     39  O        120.9320  215.1940  114.7490 O.2   288  HIS288     -0.2867
     40  CB       122.3180  213.2040  116.0730 C.3   288  HIS288      0.0745
     41  CG       123.1690  212.1260  116.6660 C.ar  288  HIS288      0.0817
     42  ND1      123.5100  212.0960  118.0020 N.ar  288  HIS288     -0.2268
     43  CD2      123.7980  211.0720  116.0930 C.ar  288  HIS288      0.1154
     44  CE1      124.3170  211.0730  118.2250 C.ar  288  HIS288      0.1986
     45  NE2      124.5090  210.4340  117.0840 N.ar  288  HIS288     -0.2212
     46  N        120.5900  217.6870  111.4310 N.3   290  LYS290     -0.1231
     47  CA       120.0020  217.4100  110.1440 C.3   290  LYS290      0.1693
     48  C        120.7180  218.2300  109.1010 C.2   290  LYS290      0.2592
     49  O        121.1080  219.3740  109.3290 O.2   290  LYS290     -0.2718
     50  CB       118.5070  217.7380  110.1350 C.3   290  LYS290      0.0285
     51  CG       117.6230  216.7600  110.9240 C.3   290  LYS290      0.0035
     52  CD       117.7960  215.3140  110.4600 C.3   290  LYS290      0.0206
     53  CE       118.3570  214.4220  111.5710 C.3   290  LYS290      0.1093
     54  NZ       118.7700  213.0670  111.0720 N.3   290  LYS290     -0.1314
     55  N        120.9230  217.6190  107.9500 N.am  291  SER291     -0.1952
     56  CA       121.5700  218.2990  106.8540 C.3   291  SER291      0.1924
     57  C        120.6170  219.4220  106.4620 C.2   291  SER291      0.2314
     58  O        119.6340  219.6910  107.1540 O.2   291  SER291     -0.2863
     59  CB       121.7670  217.3190  105.6940 C.3   291  SER291      0.2116
     60  OG       122.4340  217.9350  104.6140 O.3   291  SER291     -0.2180
     61  N        116.8580  221.0890  106.6240 N.3   309  LYS309     -0.1245
     62  CA       115.5900  220.4980  106.1890 C.3   309  LYS309      0.1561
     63  C        114.3740  220.7300  107.0870 C.2   309  LYS309      0.2260
     64  O        113.2400  220.7270  106.6000 O.2   309  LYS309     -0.2867
     65  CB       115.7440  218.9760  105.9390 C.3   309  LYS309      0.0271
     66  CG       115.8050  218.0850  107.1900 C.3   309  LYS309      0.0035
     67  CD       115.3550  216.6450  106.8840 C.3   309  LYS309      0.0206
     68  CE       116.2400  215.9460  105.8550 C.3   309  LYS309      0.1093
     69  NZ       117.5390  215.4670  106.4020 N.3   309  LYS309     -0.1314
     70  N        127.6680  211.3380  104.4800 N.3   428  ASP428     -0.1239
     71  CA       128.6610  210.2620  104.3660 C.3   428  ASP428      0.1674
     72  C        128.0620  209.1580  103.5110 C.2   428  ASP428      0.2266
     73  O        126.9060  209.2420  103.1040 O.2   428  ASP428     -0.2867
     74  CB       129.0050  209.6590  105.7520 C.3   428  ASP428      0.1410
     75  CG       127.7960  208.9320  106.4270 C.2   428  ASP428      0.3668
     76  OD1      127.9700  207.8950  107.1190 O.co2 428  ASP428     -0.2456
     77  OD2      126.6440  209.4070  106.2920 O.co2 428  ASP428     -0.2456
     78  N        126.4970  205.7750  103.5080 N.3   430  ASP430     -0.1239
     79  CA       125.8590  204.8060  104.3730 C.3   430  ASP430      0.1674
     80  C        125.6860  203.5080  103.6230 C.2   430  ASP430      0.2266
     81  O        124.9510  203.4730  102.6530 O.2   430  ASP430     -0.2867
     82  CB       124.5080  205.3460  104.7690 C.3   430  ASP430      0.1410
     83  CG       124.5970  206.2390  105.9430 C.2   430  ASP430      0.3668
     84  OD1      123.7130  207.0850  106.1410 O.co2 430  ASP430     -0.2456
     85  OD2      125.5770  206.0860  106.6990 O.co2 430  ASP430     -0.2456
     86  N        130.2850  202.0530  115.1440 N.3   484  GLY484     -0.1210
     87  CA       128.9770  201.4800  115.4150 C.3   484  GLY484      0.1956
     88  C        128.9750  199.9680  115.5280 C.2   484  GLY484      0.2612
     89  O        129.9830  199.3850  115.9000 O.2   484  GLY484     -0.2717
     90  N        127.8530  199.3300  115.2040 N.am  485  THR485     -0.1952
     91  CA       127.7460  197.8720  115.2800 C.3   485  THR485      0.1897
     92  C        127.9990  197.1910  113.9500 C.2   485  THR485      0.2313
     93  O        127.2410  197.3750  113.0100 O.2   485  THR485     -0.2863
     94  CB       126.3580  197.4180  115.7190 C.3   485  THR485      0.1794
     95  OG1      125.9390  198.1550  116.8750 O.3   485  THR485     -0.2208
     96  CG2      126.3890  195.9440  116.0430 C.3   485  THR485      0.0378
     97  N        130.4030  204.1740  109.6680 N.3   514  HIS514     -0.1226
     98  CA       129.7950  203.1340  110.4870 C.3   514  HIS514      0.1752
     99  C        129.4300  201.8830  109.6960 C.2   514  HIS514      0.2597
    100  O        129.6970  201.7780  108.5080 O.2   514  HIS514     -0.2718
    101  CB       128.5590  203.7000  111.1470 C.3   514  HIS514      0.0759
    102  CG       127.6810  204.4250  110.1850 C.ar  514  HIS514      0.0818
    103  ND1      127.3730  203.9070  108.9550 N.ar  514  HIS514     -0.2268
    104  CD2      127.0790  205.6360  110.2520 C.ar  514  HIS514      0.1154
    105  CE1      126.6200  204.7600  108.2990 C.ar  514  HIS514      0.1986
    106  NE2      126.4210  205.8240  109.0580 N.ar  514  HIS514     -0.2212
    107  N        128.8110  200.9340  110.3820 N.am  515  GLY515     -0.1942
    108  CA       128.4050  199.6780  109.7720 C.3   515  GLY515      0.2014
    109  C        127.2210  199.7170  108.8160 C.2   515  GLY515      0.2640
    110  O        126.6230  200.7650  108.5490 O.2   515  GLY515     -0.2714
    111  N        126.8760  198.5410  108.3070 N.am  516  THR516     -0.1936
    112  CA       125.7920  198.3880  107.3450 C.3   516  THR516      0.2028
    113  C        124.3910  198.5610  107.8900 C.2   516  THR516      0.2642
    114  O        124.0010  197.8820  108.8230 O.2   516  THR516     -0.2714
    115  CB       125.8490  197.0110  106.7060 C.3   516  THR516      0.1808
    116  OG1      125.8930  196.0150  107.7370 O.3   516  THR516     -0.2208
    117  CG2      127.0820  196.8910  105.8300 C.3   516  THR516      0.0379
    118  N        123.6250  199.4520  107.2830 N.am  517  GLU517     -0.1976
    119  CA       122.2390  199.7070  107.6720 C.3   517  GLU517      0.1602
    120  C        121.4050  198.4560  108.0270 C.2   517  GLU517      0.2287
    121  O        120.2870  198.5590  108.5270 O.2   517  GLU517     -0.2864
    122  CB       121.5870  200.4980  106.5360 C.3   517  GLU517      0.0415
    123  CG       120.0910  200.4040  106.4250 C.3   517  GLU517      0.1163
    124  CD       119.3850  201.0700  107.5660 C.2   517  GLU517      0.3649
    125  OE1      119.9040  202.1060  108.0570 O.co2 517  GLU517     -0.2457
    126  OE2      118.3060  200.5600  107.9540 O.co2 517  GLU517     -0.2457
    127  N        121.9180  196.6390  110.3050 N.3   519  ASP519     -0.1225
    128  CA       122.1690  196.4540  111.7220 C.3   519  ASP519      0.1805
    129  C        121.5540  197.6320  112.4550 C.2   519  ASP519      0.2597
    130  O        121.6350  197.7520  113.6800 O.2   519  ASP519     -0.2718
    131  CB       123.6480  196.3580  111.9980 C.3   519  ASP519      0.1424
    132  CG       124.0920  194.9450  112.1290 C.2   519  ASP519      0.3668
    133  OD1      123.7490  194.3400  113.1620 O.co2 519  ASP519     -0.2456
    134  OD2      124.7600  194.4360  111.2050 O.co2 519  ASP519     -0.2456
    135  N        120.9210  198.4920  111.6640 N.am  520  ASN520     -0.1974
    136  CA       120.2230  199.6570  112.1490 C.3   520  ASN520      0.1688
    137  C        118.9080  199.0750  112.6290 C.2   520  ASN520      0.2292
    138  O        117.8440  199.3700  112.0940 O.2   520  ASN520     -0.2864
    139  CB       120.0200  200.6240  110.9870 C.3   520  ASN520      0.1181
    140  CG       119.2410  201.8470  111.3790 C.2   520  ASN520      0.2629
    141  OD1      119.2600  202.2590  112.5410 O.2   520  ASN520     -0.2716
    142  ND2      118.5590  202.4510  110.4130 N.am  520  ASN520     -0.0877
    143  N        116.3800  202.1710  114.5280 N.3   523  PHE523     -0.1241
    144  CA       115.6710  203.0920  113.6320 C.3   523  PHE523      0.1605
    145  C        115.8240  202.7580  112.1500 C.2   523  PHE523      0.2264
    146  O        116.1630  203.6360  111.3450 O.2   523  PHE523     -0.2867
    147  CB       116.1740  204.5310  113.8070 C.3   523  PHE523      0.0534
    148  CG       116.3620  204.9680  115.2420 C.ar  523  PHE523     -0.0203
    149  CD1      117.4760  205.7450  115.5950 C.ar  523  PHE523     -0.0042
    150  CD2      115.4290  204.6520  116.2230 C.ar  523  PHE523     -0.0042
    151  CE1      117.6520  206.1920  116.8960 C.ar  523  PHE523     -0.0003
    152  CE2      115.5960  205.0950  117.5230 C.ar  523  PHE523     -0.0003
    153  CZ       116.7070  205.8650  117.8600 C.ar  523  PHE523     -0.0000
    154  N        115.6890  202.3780  108.2890 N.3   525  GLU525     -0.1245
    155  CA       115.1260  203.2120  107.2280 C.3   525  GLU525      0.1567
    156  C        114.9370  202.3530  105.9710 C.2   525  GLU525      0.2260
    157  O        115.7550  201.4720  105.6690 O.2   525  GLU525     -0.2867
    158  CB       116.0480  204.3910  106.8880 C.3   525  GLU525      0.0388
    159  CG       116.3590  205.3530  108.0380 C.3   525  GLU525      0.1160
    160  CD       115.2490  206.3440  108.3440 C.2   525  GLU525      0.3649
    161  OE1      114.5510  206.7870  107.4030 O.co2 525  GLU525     -0.2457
    162  OE2      115.0880  206.7090  109.5300 O.co2 525  GLU525     -0.2457
@<TRIPOS>BOND
     1    17    16    1
     2    17    18    1
     3    16    13    1
     4    13    14    1
     5    13    12    1
     6     4     3    2
     7    14    15    2
     8    12    18    1
     9    12     3   am
    10     3     2    1
    11     2     1    1
    12     2     5    1
    13     5     6    1
    14     6     7    1
    15    81    80    2
    16    73    72    2
    17    78    79    1
    18    72    71    1
    19     7     8    1
    20    80    79    1
    21    71    70    1
    22    71    74    1
    23    79    82    1
    24    10     9    1
    25    60    59    1
    26     8     9    2
    27    82    83    1
    28     9    11    1
    29   157   156    2
    30    59    56    1
    31    74    75    1
    32   117   115    1
    33    68    69    1
    34    68    67    1
    35    65    62    1
    36    65    66    1
    37    83    84   ar
    38    83    85   ar
    39   156   155    1
    40    62    61    1
    41    62    63    1
    42    77    75   ar
    43   123   122    1
    44   123   124    1
    45    75    76   ar
    46    57    56    1
    47    57    58    2
    48   122   119    1
    49    64    63    2
    50   115   112    1
    51   115   116    1
    52    56    55    1
    53    67    66    1
    54   158   155    1
    55   158   159    1
    56   155   154    1
    57   118   119    1
    58   118   113   am
    59   112   113    1
    60   112   111    1
    61   161   160   ar
    62   124   126   ar
    63   124   125   ar
    64   119   120    1
    65   113   114    2
    66    55    48   am
    67    19    20    1
    68   120   121    2
    69   159   160    1
    70   105   103   ar
    71   105   106   ar
    72   111   109   am
    73   160   162   ar
    74   100    99    2
    75   110   109    2
    76   109   108    1
    77   103   102   ar
    78   106   104   ar
    79    48    49    2
    80    48    47    1
    81    23    20    1
    82    23    24    1
    83    22    21    2
    84    20    21    1
    85    97    98    1
    86    99   107   am
    87    99    98    1
    88   108   107    1
    89    50    47    1
    90    50    51    1
    91    47    46    1
    92   102   104   ar
    93   102   101    1
    94   127   128    1
    95    25    24    1
    96    25    26    1
    97   142   140   am
    98    52    51    1
    99    52    53    1
   100    98   101    1
   101    27    26    1
   102   139   140    1
   103   139   136    1
   104    54    53    1
   105   134   132   ar
   106   146   145    2
   107   140   141    2
   108   135   136    1
   109   135   129   am
   110   128   131    1
   111   128   129    1
   112   131   132    1
   113   138   137    2
   114   132   133   ar
   115   136   137    1
   116   145   144    1
   117   129   130    2
   118    93    92    2
   119   144   147    1
   120   144   143    1
   121    28    29    1
   122   147   148    1
   123    92    91    1
   124    38    39    2
   125    38    37    1
   126    33    35    1
   127    33    34    1
   128    33    32    1
   129    29    32    1
   130    29    30    1
   131    37    36    1
   132    37    40    1
   133    86    87    1
   134    90    91    1
   135    90    88   am
   136   148   149   ar
   137   148   150   ar
   138    91    94    1
   139    87    88    1
   140    88    89    2
   141   149   151   ar
   142    94    96    1
   143    94    95    1
   144    30    31    2
   145    40    41    1
   146    43    41   ar
   147    43    45   ar
   148   150   152   ar
   149    41    42   ar
   150   151   153   ar
   151    45    44   ar
   152   152   153   ar
   153    42    44   ar
