@<TRIPOS>MOLECULE
tmp/1xfwA00.pdb
 151 143 0 0 0
SMALL
GASTEIGER

@<TRIPOS>ATOM
      1  N         52.2810  -29.6810   53.5050 N.3   266  ARG266     -0.1245
      2  CA        50.8170  -29.6120   53.4800 C.3   266  ARG266      0.1563
      3  C         50.2510  -30.8320   54.2110 C.2   266  ARG266      0.2260
      4  O         50.9590  -31.7980   54.4750 O.2   266  ARG266     -0.2867
      5  CB        50.2780  -29.5940   52.0520 C.3   266  ARG266      0.0307
      6  CG        50.6070  -28.3380   51.2650 C.3   266  ARG266      0.0489
      7  CD        49.5120  -28.0000   50.2280 C.3   266  ARG266      0.2205
      8  NE        49.4320  -28.9470   49.1250 N.pl3 266  ARG266     -0.0865
      9  CZ        48.2950  -29.3810   48.6050 C.cat 266  ARG266      0.5346
     10  NH1       47.1390  -28.9600   49.0860 N.pl3 266  ARG266      0.1354
     11  NH2       48.3130  -30.2360   47.6010 N.pl3 266  ARG266      0.1354
     12  N         52.7330  -41.1520   45.5990 N.3   283  LYS283     -0.1231
     13  CA        52.2360  -40.5790   44.3510 C.3   283  LYS283      0.1693
     14  C         53.0810  -39.4150   43.8720 C.2   283  LYS283      0.2593
     15  O         53.2890  -38.4380   44.5830 O.2   283  LYS283     -0.2718
     16  CB        50.7850  -40.1010   44.4810 C.3   283  LYS283      0.0285
     17  CG        50.2700  -39.4480   43.1960 C.3   283  LYS283      0.0035
     18  CD        48.7390  -39.2930   43.1490 C.3   283  LYS283      0.0206
     19  CE        48.2060  -38.1990   44.0970 C.3   283  LYS283      0.1093
     20  NZ        46.7080  -38.0350   44.0370 N.3   283  LYS283     -0.1314
     21  N         53.5650  -39.5310   42.6450 N.am  284  GLY284     -0.1942
     22  CA        54.3710  -38.4780   42.0650 C.3   284  GLY284      0.2014
     23  C         53.4940  -37.5770   41.2250 C.2   284  GLY284      0.2638
     24  O         52.3110  -37.3840   41.5150 O.2   284  GLY284     -0.2714
     25  N         54.0740  -37.0240   40.1740 N.am  285  LEU285     -0.1977
     26  CA        53.3320  -36.1430   39.3010 C.3   285  LEU285      0.1596
     27  C         52.5840  -36.9450   38.2500 C.2   285  LEU285      0.2287
     28  O         51.4940  -36.5700   37.8140 O.2   285  LEU285     -0.2864
     29  CB        54.2950  -35.1670   38.6350 C.3   285  LEU285      0.0297
     30  CG        54.6470  -33.9300   39.4630 C.3   285  LEU285      0.0022
     31  CD1       55.9380  -33.2770   38.9720 C.3   285  LEU285      0.0001
     32  CD2       53.4750  -32.9740   39.3970 C.3   285  LEU285      0.0001
     33  N         50.8670  -39.4410   38.4790 N.3   287  VAL287     -0.1231
     34  CA        49.5570  -39.9590   38.8850 C.3   287  VAL287      0.1692
     35  C         48.6230  -38.8840   39.3810 C.2   287  VAL287      0.2592
     36  O         49.0150  -38.0230   40.1510 O.2   287  VAL287     -0.2718
     37  CB        49.6540  -41.0140   40.0040 C.3   287  VAL287      0.0266
     38  CG1       48.2560  -41.4340   40.4410 C.3   287  VAL287      0.0020
     39  CG2       50.4190  -42.2180   39.5130 C.3   287  VAL287      0.0020
     40  N         47.3740  -38.9590   38.9460 N.am  288  HIS288     -0.1976
     41  CA        46.3550  -37.9980   39.3420 C.3   288  HIS288      0.1656
     42  C         45.0770  -38.7140   39.8150 C.2   288  HIS288      0.2291
     43  O         43.9650  -38.1860   39.6850 O.2   288  HIS288     -0.2864
     44  CB        46.0280  -37.0630   38.1690 C.3   288  HIS288      0.0771
     45  CG        47.2300  -36.3880   37.5750 C.ar  288  HIS288      0.0820
     46  ND1       47.5600  -35.0770   37.8500 N.ar  288  HIS288     -0.2267
     47  CD2       48.1650  -36.8380   36.7020 C.ar  288  HIS288      0.1154
     48  CE1       48.6500  -34.7530   37.1700 C.ar  288  HIS288      0.1986
     49  NE2       49.0370  -35.8020   36.4650 N.ar  288  HIS288     -0.2212
     50  N         42.5180  -40.5660   42.6310 N.3   290  LYS290     -0.1245
     51  CA        42.0840  -40.0340   43.8810 C.3   290  LYS290      0.1561
     52  C         42.3960  -41.0920   44.9590 C.2   290  LYS290      0.2260
     53  O         42.4050  -42.2690   44.6430 O.2   290  LYS290     -0.2867
     54  CB        40.6110  -39.5880   43.7440 C.3   290  LYS290      0.0271
     55  CG        40.3840  -38.6260   42.5880 C.3   290  LYS290      0.0035
     56  CD        41.0890  -37.2880   42.8090 C.3   290  LYS290      0.0206
     57  CE        40.8620  -36.3020   41.6770 C.3   290  LYS290      0.1093
     58  NZ        41.4480  -34.9680   41.9770 N.3   290  LYS290     -0.1314
     59  N         52.0430  -38.6090   48.9880 N.3   428  ASP428     -0.1239
     60  CA        53.4390  -38.2010   49.0900 C.3   428  ASP428      0.1674
     61  C         53.4830  -36.9950   49.9880 C.2   428  ASP428      0.2266
     62  O         52.4430  -36.4590   50.3530 O.2   428  ASP428     -0.2867
     63  CB        54.0040  -37.7970   47.7240 C.3   428  ASP428      0.1410
     64  CG        53.2430  -36.6240   47.0840 C.2   428  ASP428      0.3668
     65  OD1       53.8250  -35.9490   46.1990 O.co2 428  ASP428     -0.2456
     66  OD2       52.0620  -36.3800   47.4430 O.co2 428  ASP428     -0.2456
     67  N         53.7950  -33.3580   50.2480 N.3   430  ASP430     -0.1239
     68  CA        53.7910  -32.2130   49.3430 C.3   430  ASP430      0.1674
     69  C         54.2850  -30.9820   50.1060 C.2   430  ASP430      0.2266
     70  O         53.6180  -30.4990   51.0190 O.2   430  ASP430     -0.2867
     71  CB        52.3850  -31.9960   48.7600 C.3   430  ASP430      0.1410
     72  CG        52.0150  -33.0500   47.7010 C.2   430  ASP430      0.3668
     73  OD1       50.8160  -33.3490   47.5030 O.co2 430  ASP430     -0.2456
     74  OD2       52.9250  -33.5860   47.0420 O.co2 430  ASP430     -0.2456
     75  N         58.5920  -31.5520   38.6840 N.3   484  GLY484     -0.1210
     76  CA        57.6990  -30.4120   38.6400 C.3   484  GLY484      0.1956
     77  C         58.4170  -29.1500   38.2220 C.2   484  GLY484      0.2612
     78  O         59.2770  -29.1800   37.3620 O.2   484  GLY484     -0.2717
     79  N         58.0540  -28.0310   38.8270 N.am  485  THR485     -0.1952
     80  CA        58.6900  -26.7500   38.5460 C.3   485  THR485      0.1897
     81  C         59.3000  -26.3180   39.8530 C.2   485  THR485      0.2313
     82  O         58.5710  -26.0050   40.7890 O.2   485  THR485     -0.2863
     83  CB        57.6820  -25.6690   38.1810 C.3   485  THR485      0.1794
     84  OG1       56.8880  -26.0960   37.0640 O.3   485  THR485     -0.2208
     85  CG2       58.4090  -24.3820   37.8560 C.3   485  THR485      0.0378
     86  N         58.2130  -33.5260   44.0150 N.3   514  HIS514     -0.1226
     87  CA        58.1950  -32.3320   43.1700 C.3   514  HIS514      0.1752
     88  C         58.3650  -31.0450   43.9760 C.2   514  HIS514      0.2597
     89  O         58.3110  -31.0450   45.2100 O.2   514  HIS514     -0.2718
     90  CB        56.8590  -32.2960   42.4560 C.3   514  HIS514      0.0759
     91  CG        55.7070  -32.5950   43.3680 C.ar  514  HIS514      0.0818
     92  ND1       55.4580  -31.8650   44.5070 N.ar  514  HIS514     -0.2268
     93  CD2       54.7860  -33.5880   43.3510 C.ar  514  HIS514      0.1154
     94  CE1       54.4370  -32.3960   45.1540 C.ar  514  HIS514      0.1986
     95  NE2       54.0110  -33.4440   44.4740 N.ar  514  HIS514     -0.2212
     96  N         58.5490  -29.9460   43.2530 N.am  515  GLY515     -0.1942
     97  CA        58.7190  -28.6400   43.8650 C.3   515  GLY515      0.2014
     98  C         57.6330  -28.2340   44.8440 C.2   515  GLY515      0.2640
     99  O         56.6540  -28.9520   45.0550 O.2   515  GLY515     -0.2714
    100  N         57.8130  -27.0540   45.4280 N.am  516  THR516     -0.1936
    101  CA        56.9060  -26.5000   46.4280 C.3   516  THR516      0.2028
    102  C         55.5850  -25.9710   45.9390 C.2   516  THR516      0.2642
    103  O         55.5330  -25.2180   44.9900 O.2   516  THR516     -0.2714
    104  CB        57.5790  -25.3700   47.1470 C.3   516  THR516      0.1808
    105  OG1       58.2710  -24.5540   46.1850 O.3   516  THR516     -0.2208
    106  CG2       58.5490  -25.9210   48.1720 C.3   516  THR516      0.0379
    107  N         54.5170  -26.3440   46.6150 N.am  517  GLU517     -0.1976
    108  CA        53.1760  -25.8830   46.2690 C.3   517  GLU517      0.1602
    109  C         53.0660  -24.3930   45.8570 C.2   517  GLU517      0.2287
    110  O         52.0750  -23.9830   45.2460 O.2   517  GLU517     -0.2864
    111  CB        52.2730  -26.1630   47.4650 C.3   517  GLU517      0.0415
    112  CG        51.0110  -25.3550   47.5430 C.3   517  GLU517      0.1163
    113  CD        50.0410  -25.7340   46.4810 C.2   517  GLU517      0.3649
    114  OE1       50.0430  -26.9360   46.1050 O.co2 517  GLU517     -0.2457
    115  OE2       49.2780  -24.8310   46.0470 O.co2 517  GLU517     -0.2457
    116  N         54.3340  -23.0400   43.6450 N.3   519  ASP519     -0.1225
    117  CA        54.6330  -23.0530   42.2250 C.3   519  ASP519      0.1805
    118  C         53.5180  -23.7880   41.5320 C.2   519  ASP519      0.2597
    119  O         53.4500  -23.8870   40.3070 O.2   519  ASP519     -0.2718
    120  CB        55.9520  -23.7140   41.9620 C.3   519  ASP519      0.1424
    121  CG        57.0250  -22.7130   41.8110 C.2   519  ASP519      0.3668
    122  OD1       57.0010  -22.0360   40.7670 O.co2 519  ASP519     -0.2456
    123  OD2       57.8630  -22.5790   42.7280 O.co2 519  ASP519     -0.2456
    124  N         52.6220  -24.3080   42.3470 N.am  520  ASN520     -0.1974
    125  CA        51.4790  -24.9840   41.8230 C.3   520  ASN520      0.1688
    126  C         50.5560  -23.8370   41.4240 C.2   520  ASN520      0.2292
    127  O         49.4940  -23.6470   42.0190 O.2   520  ASN520     -0.2864
    128  CB        50.8740  -25.8620   42.9090 C.3   520  ASN520      0.1181
    129  CG        49.5280  -26.3820   42.5320 C.2   520  ASN520      0.2629
    130  OD1       49.1990  -26.4870   41.3480 O.2   520  ASN520     -0.2716
    131  ND2       48.7310  -26.7240   43.5280 N.am  520  ASN520     -0.0877
    132  N         46.8810  -25.4490   39.5810 N.3   523  PHE523     -0.1241
    133  CA        45.7860  -25.8580   40.4710 C.3   523  PHE523      0.1605
    134  C         46.1130  -25.6930   41.9450 C.2   523  PHE523      0.2264
    135  O         46.0440  -26.6620   42.7120 O.2   523  PHE523     -0.2867
    136  CB        45.3860  -27.3210   40.2270 C.3   523  PHE523      0.0534
    137  CG        45.0440  -27.6230   38.7940 C.ar  523  PHE523     -0.0203
    138  CD1       46.0310  -28.0350   37.8980 C.ar  523  PHE523     -0.0042
    139  CD2       43.7530  -27.4290   38.3200 C.ar  523  PHE523     -0.0042
    140  CE1       45.7420  -28.2400   36.5520 C.ar  523  PHE523     -0.0003
    141  CE2       43.4570  -27.6330   36.9820 C.ar  523  PHE523     -0.0003
    142  CZ        44.4580  -28.0370   36.0940 C.ar  523  PHE523     -0.0000
    143  N         46.0620  -24.9790   45.8890 N.3   525  GLU525     -0.1245
    144  CA        45.0770  -25.3850   46.8950 C.3   525  GLU525      0.1567
    145  C         45.3340  -24.6760   48.2250 C.2   525  GLU525      0.2260
    146  O         46.4800  -24.5480   48.6650 O.2   525  GLU525     -0.2867
    147  CB        45.1080  -26.9000   47.0770 C.3   525  GLU525      0.0388
    148  CG        44.9770  -27.6440   45.7600 C.3   525  GLU525      0.1160
    149  CD        43.6520  -28.3860   45.6100 C.2   525  GLU525      0.3649
    150  OE1       43.4600  -29.3990   46.3310 O.co2 525  GLU525     -0.2457
    151  OE2       42.8030  -27.9620   44.7760 O.co2 525  GLU525     -0.2457
@<TRIPOS>BOND
     1   142   140   ar
     2   142   141   ar
     3    49    47   ar
     4    49    48   ar
     5   140   138   ar
     6    47    45   ar
     7   141   139   ar
     8    84    83    1
     9    48    46   ar
    10    78    77    2
    11    45    46   ar
    12    45    44    1
    13    28    27    2
    14    85    83    1
    15   138   137   ar
    16    44    41    1
    17    83    80    1
    18    77    76    1
    19    77    79   am
    20    27    26    1
    21   139   137   ar
    22    33    34    1
    23    80    79    1
    24    80    81    1
    25    29    26    1
    26    29    30    1
    27    76    75    1
    28   137   136    1
    29    34    35    1
    30    34    37    1
    31    40    41    1
    32    40    35   am
    33    31    30    1
    34    26    25    1
    35    41    42    1
    36    35    36    2
    37    32    30    1
    38    39    37    1
    39   132   133    1
    40    43    42    2
    41    81    82    2
    42    37    38    1
    43    25    23   am
    44   136   133    1
    45   119   118    2
    46   133   134    1
    47   122   121   ar
    48    23    24    2
    49    23    22    1
    50   130   129    2
    51   126   125    1
    52   126   127    2
    53   118   117    1
    54   118   124   am
    55    57    58    1
    56    57    56    1
    57   121   120    1
    58   121   123   ar
    59   125   124    1
    60   125   128    1
    61   134   135    2
    62   120   117    1
    63    22    21    1
    64   117   116    1
    65    90    87    1
    66    90    91    1
    67   129   128    1
    68   129   131   am
    69    55    56    1
    70    55    54    1
    71    50    51    1
    72    21    14   am
    73    18    17    1
    74    18    19    1
    75    87    88    1
    76    87    86    1
    77    17    16    1
    78    96    97    1
    79    96    88   am
    80    93    91   ar
    81    93    95   ar
    82    91    92   ar
    83    54    51    1
    84    97    98    1
    85    14    13    1
    86    14    15    2
    87    51    52    1
    88    88    89    2
    89    20    19    1
    90    13    16    1
    91    13    12    1
    92    95    94   ar
    93    92    94   ar
    94    53    52    2
    95   151   149   ar
    96    98    99    2
    97    98   100   am
    98   103   102    2
    99   110   109    2
   100   100   101    1
   101   149   148    1
   102   149   150   ar
   103   148   147    1
   104   109   108    1
   105   143   144    1
   106   102   101    1
   107   102   107   am
   108   115   113   ar
   109   114   113   ar
   110   105   104    1
   111    65    64   ar
   112   108   107    1
   113   108   111    1
   114   101   104    1
   115   113   112    1
   116   144   147    1
   117   144   145    1
   118    74    72   ar
   119    64    66   ar
   120    64    63    1
   121   104   106    1
   122   111   112    1
   123    73    72   ar
   124    11     9    1
   125    72    71    1
   126    63    60    1
   127   145   146    2
   128     9    10    1
   129     9     8    2
   130    71    68    1
   131    59    60    1
   132    60    61    1
   133     8     7    1
   134    68    69    1
   135    68    67    1
   136    61    62    2
   137    69    70    2
   138     7     6    1
   139     6     5    1
   140     5     2    1
   141     2     1    1
   142     2     3    1
   143     3     4    2
