@<TRIPOS>MOLECULE
tmp/1xg0D01.pdb
 107 99 0 0 0
SMALL
GASTEIGER

@<TRIPOS>ATOM
      1  N         -6.2340   29.0350   33.5190 N.3    47  ASN47      -0.1240
      2  CA        -5.3510   28.3610   32.5590 C.3    47  ASN47       0.1653
      3  C         -5.9530   28.3730   31.1500 C.2    47  ASN47       0.2266
      4  O         -5.5760   27.5660   30.2950 O.2    47  ASN47      -0.2867
      5  CB        -5.0700   26.9370   33.0290 C.3    47  ASN47       0.1155
      6  CG        -4.0970   26.9430   34.2130 C.2    47  ASN47       0.2627
      7  OD1       -2.9310   27.3400   34.0560 O.2    47  ASN47      -0.2716
      8  ND2       -4.5540   26.5370   35.3850 N.am   47  ASN47      -0.0877
      9  N         -3.7240   28.5240   27.8550 N.3    50  CYS50      -0.1221
     10  CA        -2.9250   27.3230   27.6080 C.3    50  CYS50       0.1808
     11  C         -3.8390   26.1370   27.2150 C.2    50  CYS50       0.2601
     12  O         -3.4750   25.3480   26.3500 O.2    50  CYS50      -0.2717
     13  CB        -2.1180   27.0140   28.8390 C.3    50  CYS50       0.0970
     14  SG        -0.6900   25.9190   28.4860 S.3    50  CYS50      -0.0800
     15  N         -4.9980   26.0190   27.8770 N.am   51  ILE51      -0.1979
     16  CA        -5.9140   24.9250   27.5410 C.3    51  ILE51       0.1595
     17  C         -6.3150   25.0110   26.0570 C.2    51  ILE51       0.2287
     18  O         -6.2740   24.0400   25.3130 O.2    51  ILE51      -0.2864
     19  CB        -7.1590   24.9840   28.4330 C.3    51  ILE51       0.0276
     20  CG1       -6.7410   24.5830   29.8810 C.3    51  ILE51       0.0022
     21  CG2       -8.2480   24.0660   27.8970 C.3    51  ILE51       0.0022
     22  CD1       -7.8470   24.7750   30.8950 C.3    51  ILE51       0.0001
     23  N         -3.2340   24.4970   23.6310 N.3    54  ASP54      -0.1239
     24  CA        -2.7960   23.1120   23.6000 C.3    54  ASP54       0.1674
     25  C         -3.8130   22.2340   22.8670 C.2    54  ASP54       0.2266
     26  O         -3.4350   21.2890   22.1450 O.2    54  ASP54      -0.2867
     27  CB        -2.5170   22.5850   25.0110 C.3    54  ASP54       0.1410
     28  CG        -1.7020   21.3360   25.0410 C.2    54  ASP54       0.3668
     29  OD1       -0.6950   21.2470   24.2720 O.co2  54  ASP54      -0.2456
     30  OD2       -2.0040   20.4290   25.8540 O.co2  54  ASP54      -0.2456
     31  N         -3.4640   23.1940   19.0580 N.3    57  SER57      -0.1202
     32  CA        -2.2470   22.6930   18.4960 C.3    57  SER57       0.2020
     33  C         -2.2170   21.1440   18.5130 C.2    57  SER57       0.2619
     34  O         -1.5890   20.5300   17.6290 O.2    57  SER57      -0.2717
     35  CB        -1.0280   23.3660   19.1250 C.3    57  SER57       0.2103
     36  OG        -0.8940   23.0180   20.4960 O.3    57  SER57      -0.2182
     37  N         -2.9110   20.4830   19.4580 N.am   58  GLY58      -0.1956
     38  CA        -3.0100   19.0270   19.4580 C.3    58  GLY58       0.1869
     39  C         -3.9170   18.5040   18.3540 C.2    58  GLY58       0.2309
     40  O         -3.6200   17.5220   17.6840 O.2    58  GLY58      -0.2863
     41  N         -1.5960   18.8100   15.4400 N.3    61  CYS61      -0.1221
     42  CA        -0.5040   17.8390   15.2720 C.3    61  CYS61       0.1808
     43  C         -1.0710   16.4640   14.9120 C.2    61  CYS61       0.2601
     44  O         -0.3970   15.6920   14.2080 O.2    61  CYS61      -0.2717
     45  CB         0.4490   17.7790   16.4710 C.3    61  CYS61       0.0970
     46  SG        -0.2730   16.9770   17.9310 S.3    61  CYS61      -0.0800
     47  N         -2.2900   16.1690   15.3490 N.am   62  GLU62      -0.1979
     48  CA        -2.9260   14.9000   14.9490 C.3    62  GLU62       0.1602
     49  C         -3.3980   14.9390   13.5000 C.2    62  GLU62       0.2287
     50  O         -3.4330   13.9220   12.8460 O.2    62  GLU62      -0.2864
     51  CB        -4.0780   14.5660   15.8910 C.3    62  GLU62       0.0415
     52  CG        -3.5580   14.2060   17.2970 C.3    62  GLU62       0.1163
     53  CD        -4.6050   13.6650   18.2340 C.2    62  GLU62       0.3649
     54  OE1       -5.8150   13.5570   17.8510 O.co2  62  GLU62      -0.2457
     55  OE2       -4.2300   13.3200   19.3790 O.co2  62  GLU62      -0.2457
     56  N        -12.1360   16.8200   18.3470 N.3   128  ARG128     -0.1245
     57  CA       -10.8420   16.5760   19.0040 C.3   128  ARG128      0.1563
     58  C        -10.3890   17.7820   19.8150 C.2   128  ARG128      0.2260
     59  O         -9.8780   17.6020   20.9320 O.2   128  ARG128     -0.2867
     60  CB        -9.7800   16.1270   17.9980 C.3   128  ARG128      0.0307
     61  CG        -8.4730   15.7750   18.6960 C.3   128  ARG128      0.0489
     62  CD        -8.6440   14.7540   19.7950 C.3   128  ARG128      0.2205
     63  NE        -7.3710   14.2080   20.2240 N.pl3 128  ARG128     -0.0865
     64  CZ        -7.1420   13.6680   21.4320 C.cat 128  ARG128      0.5346
     65  NH1       -8.0490   13.7250   22.4140 N.pl3 128  ARG128      0.1354
     66  NH2       -5.9640   13.1280   21.6490 N.pl3 128  ARG128      0.1354
     67  N        -12.3150   17.4800   22.9740 N.3   131  SER131     -0.1202
     68  CA       -11.8390   16.3220   23.7430 C.3   131  SER131      0.2020
     69  C        -10.5460   16.6820   24.5000 C.2   131  SER131      0.2618
     70  O        -10.3540   16.2770   25.6620 O.2   131  SER131     -0.2717
     71  CB       -11.5540   15.1630   22.7840 C.3   131  SER131      0.2103
     72  OG       -10.8060   14.1680   23.3990 O.3   131  SER131     -0.2182
     73  N         -9.6490   17.4230   23.8450 N.am  132  ILE132     -0.1979
     74  CA        -8.4190   17.8180   24.5290 C.3   132  ILE132      0.1595
     75  C         -8.7390   18.8380   25.6160 C.2   132  ILE132      0.2287
     76  O         -8.2080   18.7280   26.7370 O.2   132  ILE132     -0.2864
     77  CB        -7.3090   18.3190   23.5490 C.3   132  ILE132      0.0276
     78  CG1       -6.9450   17.1910   22.5710 C.3   132  ILE132      0.0022
     79  CG2       -6.1300   18.8010   24.3510 C.3   132  ILE132      0.0022
     80  CD1       -6.0340   17.6790   21.4310 C.3   132  ILE132      0.0001
     81  N         -9.9910   16.9310   28.5960 N.3   135  ALA135     -0.1231
     82  CA        -8.9290   16.2730   29.3250 C.3   135  ALA135      0.1694
     83  C         -8.1340   17.2530   30.1770 C.2   135  ALA135      0.2592
     84  O         -7.7310   16.9420   31.3070 O.2   135  ALA135     -0.2718
     85  CB        -8.0040   15.5760   28.3330 C.3   135  ALA135      0.0304
     86  N         -7.8950   18.4460   29.6520 N.am  136  CYS136     -0.1970
     87  CA        -7.1910   19.4750   30.4310 C.3   136  CYS136      0.1712
     88  C         -7.9670   19.8230   31.7140 C.2   136  CYS136      0.2296
     89  O         -7.4450   19.8640   32.8150 O.2   136  CYS136     -0.2864
     90  CB        -6.9960   20.7680   29.6320 C.3   136  CYS136      0.0983
     91  SG        -5.8870   20.6620   28.2190 S.3   136  CYS136     -0.0798
     92  N         -8.0150   17.1360   34.4210 N.3   139  ALA139     -0.1231
     93  CA        -6.7110   17.0610   35.0940 C.3   139  ALA139      0.1694
     94  C         -6.5120   18.1980   36.0870 C.2   139  ALA139      0.2592
     95  O         -5.9010   18.0030   37.1360 O.2   139  ALA139     -0.2718
     96  CB        -5.5880   17.0340   34.0790 C.3   139  ALA139      0.0304
     97  N         -6.9710   19.4070   35.7430 N.am  140  PHE140     -0.1976
     98  CA        -6.8510   20.5370   36.6660 C.3   140  PHE140      0.1639
     99  C         -7.7380   20.3640   37.8840 C.2   140  PHE140      0.2290
    100  O         -7.3610   20.7380   39.0030 O.2   140  PHE140     -0.2864
    101  CB        -7.1600   21.8810   35.9900 C.3   140  PHE140      0.0560
    102  CG        -6.0260   22.3740   35.1210 C.ar  140  PHE140     -0.0200
    103  CD1       -4.7970   22.6050   35.6660 C.ar  140  PHE140     -0.0042
    104  CD2       -6.2080   22.6410   33.7780 C.ar  140  PHE140     -0.0042
    105  CE1       -3.7530   23.0640   34.8780 C.ar  140  PHE140     -0.0003
    106  CE2       -5.1850   23.0880   32.9990 C.ar  140  PHE140     -0.0003
    107  CZ        -3.9880   23.2710   33.5200 C.ar  140  PHE140     -0.0000
@<TRIPOS>BOND
     1    50    49    2
     2    49    48    1
     3    44    43    2
     4    43    42    1
     5    43    47   am
     6    48    47    1
     7    48    51    1
     8    42    41    1
     9    42    45    1
    10    51    52    1
    11    45    46    1
    12    52    53    1
    13    34    33    2
    14    40    39    2
    15    54    53   ar
    16    60    61    1
    17    60    57    1
    18    53    55   ar
    19    56    57    1
    20    39    38    1
    21    32    33    1
    22    32    31    1
    23    32    35    1
    24    33    37   am
    25    61    62    1
    26    57    58    1
    27    35    36    1
    28    37    38    1
    29    62    63    1
    30    58    59    2
    31    63    64    2
    32    80    78    1
    33    64    66    1
    34    64    65    1
    35    26    25    2
    36    78    77    1
    37    71    72    1
    38    71    68    1
    39    25    24    1
    40    67    68    1
    41    77    79    1
    42    77    74    1
    43    24    23    1
    44    24    27    1
    45    68    69    1
    46    73    69   am
    47    73    74    1
    48    29    28   ar
    49    69    70    2
    50    74    75    1
    51    27    28    1
    52    28    30   ar
    53    18    17    2
    54    75    76    2
    55    17    16    1
    56    12    11    2
    57    11    10    1
    58    11    15   am
    59    16    15    1
    60    16    19    1
    61    10     9    1
    62    10    13    1
    63    21    19    1
    64    91    90    1
    65    85    82    1
    66    19    20    1
    67    14    13    1
    68    81    82    1
    69    82    83    1
    70    90    87    1
    71    86    83   am
    72    86    87    1
    73    20    22    1
    74    83    84    2
    75     4     3    2
    76    87    88    1
    77     3     2    1
    78    88    89    2
    79     2     5    1
    80     2     1    1
    81   106   107   ar
    82   106   104   ar
    83     5     6    1
    84   107   105   ar
    85   104   102   ar
    86     7     6    2
    87    96    93    1
    88     6     8   am
    89    92    93    1
    90   105   103   ar
    91    93    94    1
    92   102   103   ar
    93   102   101    1
    94    97    94   am
    95    97    98    1
    96   101    98    1
    97    94    95    2
    98    98    99    1
    99    99   100    2
