@<TRIPOS>MOLECULE
tmp/1xg0D03.pdb
 206 192 0 0 0
SMALL
GASTEIGER

@<TRIPOS>ATOM
      1  N        -26.1090   38.7070   27.6560 N.3    11  ASN11      -0.1240
      2  CA       -25.3620   39.7550   26.9410 C.3    11  ASN11       0.1653
      3  C        -26.1210   41.0860   26.9060 C.2    11  ASN11       0.2266
      4  O        -26.0310   41.8550   25.9650 O.2    11  ASN11      -0.2867
      5  CB       -24.9540   39.3400   25.5030 C.3    11  ASN11       0.1155
      6  CG       -24.0410   38.1490   25.4340 C.2    11  ASN11       0.2627
      7  OD1      -23.1240   37.9940   26.2840 O.2    11  ASN11      -0.2716
      8  ND2      -24.2160   37.2550   24.3980 N.am   11  ASN11      -0.0877
      9  N         -5.9460   23.2390   20.4350 N.3    56  VAL56      -0.1245
     10  CA        -5.9020   23.5460   18.9960 C.3    56  VAL56       0.1561
     11  C         -4.5960   23.0020   18.3890 C.2    56  VAL56       0.2260
     12  O         -4.6260   22.3850   17.3020 O.2    56  VAL56      -0.2867
     13  CB        -6.1170   25.0630   18.7700 C.3    56  VAL56       0.0252
     14  CG1       -5.8210   25.4570   17.3230 C.3    56  VAL56       0.0019
     15  CG2       -7.5840   25.3700   19.1220 C.3    56  VAL56       0.0019
     16  N         -5.0630   19.1730   18.1710 N.3    59  MET59      -0.1245
     17  CA        -5.9070   18.8950   17.0350 C.3    59  MET59       0.1570
     18  C         -5.0980   18.9270   15.7510 C.2    59  MET59       0.2261
     19  O         -5.2120   18.0630   14.8610 O.2    59  MET59      -0.2867
     20  CB        -7.0540   19.9200   17.0360 C.3    59  MET59       0.0387
     21  CG        -7.9710   19.8720   15.8340 C.3    59  MET59       0.0595
     22  SD        -9.0480   21.3340   15.7160 S.3    59  MET59      -0.1393
     23  CE        -7.8430   22.6210   15.2930 C.3    59  MET59       0.0692
     24  N         -4.9960   20.5950    8.6810 N.3    66  LEU66      -0.1245
     25  CA        -5.7490   21.7650    9.1560 C.3    66  LEU66       0.1561
     26  C         -5.0380   23.0820    8.9250 C.2    66  LEU66       0.2260
     27  O         -5.7040   24.1160    8.8370 O.2    66  LEU66      -0.2867
     28  CB        -6.0550   21.5720   10.6500 C.3    66  LEU66       0.0270
     29  CG        -7.1940   20.5730   10.9150 C.3    66  LEU66       0.0019
     30  CD1       -7.0680   20.0020   12.3140 C.3    66  LEU66       0.0001
     31  CD2       -8.5540   21.1890   10.7190 C.3    66  LEU66       0.0001
     32  N         -7.8270   25.9590    9.5490 N.3    72  CYS72      -0.1235
     33  CA        -7.0590   26.8570   10.3950 C.3    72  CYS72       0.1677
     34  C         -5.9700   27.6240    9.6160 C.2    72  CYS72       0.2270
     35  O         -5.1890   28.3410   10.2410 O.2    72  CYS72      -0.2867
     36  CB        -6.4210   26.1030   11.5640 C.3    72  CYS72       0.0956
     37  SG        -7.5790   25.6220   12.8580 S.3    72  CYS72      -0.0801
     38  N         -6.2090   34.6920   10.3040 N.3    76  ARG76      -0.1231
     39  CA        -7.6090   34.9490   10.5340 C.3    76  ARG76       0.1694
     40  C         -8.3260   33.6840   10.9930 C.2    76  ARG76       0.2591
     41  O         -9.1090   33.7040   11.9740 O.2    76  ARG76      -0.2718
     42  CB        -8.2400   35.4850    9.2520 C.3    76  ARG76       0.0321
     43  CG        -9.7480   35.6020    9.3460 C.3    76  ARG76       0.0489
     44  CD       -10.3100   36.2710    8.1110 C.3    76  ARG76       0.2205
     45  NE       -11.7540   36.3150    8.1150 N.pl3  76  ARG76      -0.0865
     46  CZ       -12.4440   37.2610    7.4800 C.cat  76  ARG76       0.5346
     47  NH1      -11.8700   38.1400    6.6830 N.pl3  76  ARG76       0.1354
     48  NH2      -13.7520   37.2940    7.7040 N.pl3  76  ARG76       0.1354
     49  N         -8.1650   32.6000   10.2650 N.am   77  ARG77      -0.1980
     50  CA        -8.8910   31.3550   10.6130 C.3    77  ARG77       0.1597
     51  C         -8.3630   30.7680   11.9190 C.2    77  ARG77       0.2287
     52  O         -9.1510   30.3220   12.7700 O.2    77  ARG77      -0.2864
     53  CB        -8.8480   30.3160    9.4850 C.3    77  ARG77       0.0334
     54  CG        -9.5640   30.7790    8.2240 C.3    77  ARG77       0.0492
     55  CD        -9.7620   29.6360    7.2470 C.3    77  ARG77       0.2205
     56  NE       -10.3020   30.0620    5.9690 N.pl3  77  ARG77      -0.0865
     57  CZ        -9.5680   30.4390    4.9280 C.cat  77  ARG77       0.5346
     58  NH1       -8.2550   30.4440    4.9980 N.pl3  77  ARG77       0.1354
     59  NH2      -10.1490   30.8570    3.7930 N.pl3  77  ARG77       0.1354
     60  N         -9.8680   32.7150   14.7330 N.3    80  ALA80      -0.1231
     61  CA       -11.3000   32.3950   14.9250 C.3    80  ALA80       0.1694
     62  C        -11.4480   31.0400   15.6530 C.2    80  ALA80       0.2592
     63  O        -12.3270   30.8740   16.4810 O.2    80  ALA80      -0.2718
     64  CB       -12.0180   32.3260   13.6030 C.3    80  ALA80       0.0304
     65  N        -10.5900   30.0660   15.3040 N.am   81  CYS81      -0.1970
     66  CA       -10.6630   28.7460   15.9360 C.3    81  CYS81       0.1712
     67  C        -10.2740   28.8300   17.4100 C.2    81  CYS81       0.2296
     68  O        -10.9950   28.3060   18.2900 O.2    81  CYS81      -0.2864
     69  CB        -9.8050   27.7680   15.1500 C.3    81  CYS81       0.0983
     70  SG        -9.7000   26.1320   15.9200 S.3    81  CYS81      -0.0798
     71  N        -10.4540   31.4910   19.2180 N.3    83  ARG83      -0.1231
     72  CA       -11.5370   32.2500   19.8510 C.3    83  ARG83       0.1694
     73  C        -12.7040   31.3030   20.1820 C.2    83  ARG83       0.2592
     74  O        -13.2440   31.3360   21.2940 O.2    83  ARG83      -0.2718
     75  CB       -11.9940   33.3400   18.8790 C.3    83  ARG83       0.0321
     76  CG       -13.2420   34.1050   19.3550 C.3    83  ARG83       0.0489
     77  CD       -13.9730   34.7620   18.2030 C.3    83  ARG83       0.2205
     78  NE       -14.5480   33.7470   17.3330 N.pl3  83  ARG83      -0.0865
     79  CZ       -15.1010   34.0260   16.1450 C.cat  83  ARG83       0.5346
     80  NH1      -15.1560   35.2780   15.7080 N.pl3  83  ARG83       0.1354
     81  NH2      -15.5540   33.0200   15.4220 N.pl3  83  ARG83       0.1354
     82  N        -13.1330   30.4820   19.2080 N.am   84  ASP84      -0.1960
     83  CA       -14.2540   29.5660   19.4760 C.3    84  ASP84       0.1840
     84  C        -13.9300   28.5830   20.5860 C.2    84  ASP84       0.2622
     85  O        -14.7810   28.2860   21.4180 O.2    84  ASP84      -0.2715
     86  CB       -14.6420   28.7810   18.2250 C.3    84  ASP84       0.1450
     87  CG       -15.3460   29.5740   17.1810 C.2    84  ASP84       0.3671
     88  OD1      -15.4120   30.8200   17.2430 O.co2  84  ASP84      -0.2456
     89  OD2      -15.8730   28.8930   16.2200 O.co2  84  ASP84      -0.2456
     90  N        -12.6910   28.0800   20.6050 N.am   85  GLY85      -0.1954
     91  CA       -12.3070   27.1760   21.7000 C.3    85  GLY85       0.1869
     92  C        -12.4910   27.8590   23.0570 C.2    85  GLY85       0.2309
     93  O        -12.9880   27.2380   24.0110 O.2    85  GLY85      -0.2863
     94  N        -14.4890   30.5420   23.6900 N.3    87  ILE87      -0.1231
     95  CA       -15.9240   30.7600   23.9510 C.3    87  ILE87       0.1692
     96  C        -16.5540   29.4970   24.5510 C.2    87  ILE87       0.2591
     97  O        -17.2720   29.5350   25.5490 O.2    87  ILE87      -0.2718
     98  CB       -16.6520   31.1770   22.6420 C.3    87  ILE87       0.0266
     99  CG1      -16.2100   32.5750   22.2060 C.3    87  ILE87       0.0019
    100  CG2      -18.1370   31.1020   22.8340 C.3    87  ILE87       0.0020
    101  CD1      -16.6120   32.9120   20.7780 C.3    87  ILE87       0.0001
    102  N        -16.2860   28.3530   23.9070 N.am   88  ILE88      -0.1980
    103  CA       -16.8000   27.0780   24.4000 C.3    88  ILE88       0.1595
    104  C        -16.3140   26.7890   25.8190 C.2    88  ILE88       0.2287
    105  O        -17.1110   26.4320   26.7040 O.2    88  ILE88      -0.2864
    106  CB       -16.4470   25.9400   23.4110 C.3    88  ILE88       0.0276
    107  CG1      -17.2200   26.1160   22.1030 C.3    88  ILE88       0.0022
    108  CG2      -16.6650   24.5780   24.0170 C.3    88  ILE88       0.0022
    109  CD1      -16.7100   25.2670   20.9560 C.3    88  ILE88       0.0001
    110  N        -18.1920   29.0370   28.2890 N.3    91  TYR91      -0.1241
    111  CA       -19.5490   28.6060   28.5790 C.3    91  TYR91       0.1605
    112  C        -19.5390   27.3350   29.4470 C.2    91  TYR91       0.2264
    113  O        -20.3940   27.1810   30.3400 O.2    91  TYR91      -0.2867
    114  CB       -20.3640   28.4500   27.2840 C.3    91  TYR91       0.0534
    115  CG       -20.9870   29.7220   26.8230 C.ar   91  TYR91      -0.0201
    116  CD1      -22.1070   30.1980   27.4800 C.ar   91  TYR91      -0.0009
    117  CD2      -20.4710   30.4740   25.7680 C.ar   91  TYR91      -0.0009
    118  CE1      -22.7180   31.3860   27.0970 C.ar   91  TYR91       0.0417
    119  CE2      -21.0860   31.6580   25.3840 C.ar   91  TYR91       0.0417
    120  CZ       -22.2140   32.1120   26.0370 C.ar   91  TYR91       0.1957
    121  OH       -22.8050   33.2880   25.6510 O.3    91  TYR91      -0.2866
    122  N        -27.1920   29.4380   24.9220 N.3   107  ARG107     -0.1231
    123  CA       -26.4850   30.5840   24.3820 C.3   107  ARG107      0.1694
    124  C        -25.2040   30.2520   23.6390 C.2   107  ARG107      0.2592
    125  O        -24.6710   31.0940   22.9400 O.2   107  ARG107     -0.2718
    126  CB       -26.2110   31.5760   25.4840 C.3   107  ARG107      0.0321
    127  CG       -27.5240   32.0130   26.1780 C.3   107  ARG107      0.0489
    128  CD       -27.4850   33.2940   26.8960 C.3   107  ARG107      0.2205
    129  NE       -28.8180   33.6680   27.3800 N.pl3 107  ARG107     -0.0865
    130  CZ       -29.6740   34.5240   26.7850 C.cat 107  ARG107      0.5346
    131  NH1      -29.3930   35.1580   25.6500 N.pl3 107  ARG107      0.1354
    132  NH2      -30.8360   34.7440   27.3660 N.pl3 107  ARG107      0.1354
    133  N        -24.7560   28.9970   23.7220 N.am  108  CYS108     -0.1970
    134  CA       -23.5690   28.5770   22.9930 C.3   108  CYS108      0.1712
    135  C        -23.8730   27.4810   21.9860 C.2   108  CYS108      0.2296
    136  O        -23.4790   27.5650   20.8150 O.2   108  CYS108     -0.2864
    137  CB       -22.4350   28.1620   23.9560 C.3   108  CYS108      0.0983
    138  SG       -20.8400   27.8700   23.1910 S.3   108  CYS108     -0.0798
    139  N        -25.3190   26.0240   16.8680 N.3   112  LEU112     -0.1245
    140  CA       -23.8980   26.0670   16.5550 C.3   112  LEU112      0.1561
    141  C        -23.4950   25.0840   15.4290 C.2   112  LEU112      0.2260
    142  O        -22.7370   25.4520   14.5240 O.2   112  LEU112     -0.2867
    143  CB       -23.0950   25.7930   17.8380 C.3   112  LEU112      0.0270
    144  CG       -21.5900   25.9260   17.6990 C.3   112  LEU112      0.0019
    145  CD1      -21.1440   27.3050   17.1750 C.3   112  LEU112      0.0001
    146  CD2      -20.9380   25.6320   19.0510 C.3   112  LEU112      0.0001
    147  N        -24.2940   26.4870   12.0360 N.3   115  THR115     -0.1203
    148  CA       -23.3000   27.4780   11.6210 C.3   115  THR115      0.1994
    149  C        -22.0270   26.8150   11.1060 C.2   115  THR115      0.2617
    150  O        -21.5110   27.1420   10.0500 O.2   115  THR115     -0.2717
    151  CB       -23.0240   28.4380   12.7850 C.3   115  THR115      0.1784
    152  OG1      -24.1220   29.3530   12.9040 O.3   115  THR115     -0.2211
    153  CG2      -21.7950   29.2620   12.5260 C.3   115  THR115      0.0376
    154  N        -21.5210   25.8370   11.8700 N.am  116  TYR116     -0.1975
    155  CA       -20.3090   25.1310   11.4480 C.3   116  TYR116      0.1639
    156  C        -20.4870   24.3950   10.1150 C.2   116  TYR116      0.2290
    157  O        -19.5800   24.4030    9.2690 O.2   116  TYR116     -0.2864
    158  CB       -19.7990   24.2250   12.5550 C.3   116  TYR116      0.0560
    159  CG       -19.1930   24.9470   13.7420 C.ar  116  TYR116     -0.0198
    160  CD1      -18.5610   26.1680   13.6050 C.ar  116  TYR116     -0.0009
    161  CD2      -19.2120   24.3520   14.9930 C.ar  116  TYR116     -0.0009
    162  CE1      -17.9410   26.7960   14.6820 C.ar  116  TYR116      0.0417
    163  CE2      -18.6060   24.9750   16.0980 C.ar  116  TYR116      0.0417
    164  CZ       -17.9590   26.1910   15.9300 C.ar  116  TYR116      0.1957
    165  OH       -17.3400   26.7760   17.0200 O.3   116  TYR116     -0.2866
    166  N        -20.2710   26.8680    7.2370 N.3   119  LEU119     -0.1245
    167  CA       -18.8850   27.3370    7.0260 C.3   119  LEU119      0.1561
    168  C        -17.8910   26.2830    6.6320 C.2   119  LEU119      0.2260
    169  O        -16.7850   26.5840    6.2460 O.2   119  LEU119     -0.2867
    170  CB       -18.4390   27.9930    8.3000 C.3   119  LEU119      0.0270
    171  CG       -19.2260   29.2240    8.7230 C.3   119  LEU119      0.0019
    172  CD1      -18.8300   29.6700   10.0970 C.3   119  LEU119      0.0001
    173  CD2      -19.0300   30.3220    7.6420 C.3   119  LEU119      0.0001
    174  N        -16.6030   24.1800    8.8620 N.3   121  VAL121     -0.1231
    175  CA       -15.6980   23.9390   10.0160 C.3   121  VAL121      0.1678
    176  C        -15.7430   22.4490   10.3220 C.2   121  VAL121      0.2434
    177  O        -16.8320   21.9420   10.6580 O.2   121  VAL121     -0.2733
    178  CB       -16.0890   24.8110   11.2200 C.3   121  VAL121      0.0265
    179  CG1      -15.2620   24.4330   12.4440 C.3   121  VAL121      0.0020
    180  CG2      -15.9880   26.2800   10.9150 C.3   121  VAL121      0.0020
    181  N        -14.6100   21.7410   10.2180 N.am  122  PRO122     -0.2729
    182  CA       -14.6750   20.2720   10.2370 C.3   122  PRO122      0.1401
    183  C        -15.0670   19.7430   11.6240 C.2   122  PRO122      0.2269
    184  O        -14.3470   19.9920   12.6130 O.2   122  PRO122     -0.2865
    185  CB       -13.2580   19.8430    9.8020 C.3   122  PRO122      0.0296
    186  CG       -12.3720   21.0520   10.1500 C.3   122  PRO122      0.0237
    187  CD       -13.2530   22.2330    9.8560 C.3   122  PRO122      0.0939
    188  N        -12.4890   17.3600   13.5680 N.3   125  SER125     -0.1202
    189  CA       -11.3930   18.1430   14.1330 C.3   125  SER125      0.2020
    190  C        -11.8930   18.9390   15.3570 C.2   125  SER125      0.2618
    191  O        -11.1980   18.9750   16.4030 O.2   125  SER125     -0.2717
    192  CB       -10.8340   19.0670   13.0640 C.3   125  SER125      0.2103
    193  OG       -10.4720   18.3090   11.9020 O.3   125  SER125     -0.2182
    194  N        -13.0660   19.5350   15.2280 N.am  126  ASN126     -0.1974
    195  CA       -13.6450   20.3010   16.3340 C.3   126  ASN126      0.1688
    196  C        -13.8610   19.3820   17.5300 C.2   126  ASN126      0.2292
    197  O        -13.5350   19.7490   18.6790 O.2   126  ASN126     -0.2864
    198  CB       -14.9450   20.9370   15.8600 C.3   126  ASN126      0.1181
    199  CG       -15.1120   22.3440   16.2960 C.2   126  ASN126      0.2629
    200  OD1      -14.4480   22.8350   17.2240 O.2   126  ASN126     -0.2716
    201  ND2      -16.0400   23.0400   15.6400 N.am  126  ASN126     -0.0877
    202  N        -10.5440   19.0000   19.3130 N.3   129  ALA129     -0.1245
    203  CA       -10.2240   20.1720   20.1370 C.3   129  ALA129      0.1562
    204  C        -11.0150   20.1090   21.4560 C.2   129  ALA129      0.2260
    205  O        -10.4450   20.3610   22.5460 O.2   129  ALA129     -0.2867
    206  CB       -10.5040   21.4610   19.3860 C.3   129  ALA129      0.0290
@<TRIPOS>BOND
     1    59    57    1
     2    57    58    1
     3    57    56    2
     4    56    55    1
     5   169   168    2
     6   168   167    1
     7    47    46    1
     8   167   166    1
     9   167   170    1
    10    55    54    1
    11    46    48    1
    12    46    45    2
    13   173   171    1
    14    44    45    1
    15    44    43    1
    16    54    53    1
    17   170   171    1
    18    24    25    1
    19   171   172    1
    20    27    26    2
    21   174   175    1
    22    26    25    1
    23    25    28    1
    24    42    43    1
    25    42    39    1
    26   157   156    2
    27    53    50    1
    28    32    33    1
    29    34    35    2
    30    34    33    1
    31   185   186    1
    32   185   182    1
    33   187   186    1
    34   187   181    1
    35   175   176    1
    36   175   178    1
    37   150   149    2
    38   156   155    1
    39   181   182    1
    40   181   176   am
    41   182   183    1
    42    49    50    1
    43    49    40   am
    44    38    39    1
    45   176   177    2
    46    33    36    1
    47    39    40    1
    48    50    51    1
    49    28    29    1
    50    31    29    1
    51   180   178    1
    52    29    30    1
    53    40    41    2
    54   149   148    1
    55   149   154   am
    56   178   179    1
    57   155   154    1
    58   155   158    1
    59    36    37    1
    60   148   147    1
    61   148   151    1
    62   183   184    2
    63   193   192    1
    64    51    52    2
    65   153   151    1
    66   158   159    1
    67   151   152    1
    68   192   189    1
    69   188   189    1
    70    64    61    1
    71   160   159   ar
    72   160   162   ar
    73   159   161   ar
    74   189   190    1
    75   142   141    2
    76   162   164   ar
    77    60    61    1
    78    19    18    2
    79    61    62    1
    80   161   163   ar
    81    69    70    1
    82    69    66    1
    83   194   190   am
    84   194   195    1
    85    23    22    1
    86    65    62   am
    87    65    66    1
    88   190   191    2
    89    81    79    1
    90   141   140    1
    91   201   199   am
    92    62    63    2
    93    80    79    1
    94    22    21    1
    95    18    17    1
    96    21    20    1
    97   198   199    1
    98   198   195    1
    99   164   163   ar
   100   164   165    1
   101    66    67    1
   102    79    78    2
   103    89    87   ar
   104   199   200    2
   105   195   196    1
   106   140   139    1
   107   140   143    1
   108    17    20    1
   109    17    16    1
   110   145   144    1
   111    87    88   ar
   112    87    86    1
   113    12    11    2
   114    14    13    1
   115    78    77    1
   116    67    68    2
   117   196   197    2
   118   144   143    1
   119   144   146    1
   120    77    76    1
   121    86    83    1
   122    11    10    1
   123    13    10    1
   124    13    15    1
   125    75    76    1
   126    75    72    1
   127    10     9    1
   128    82    83    1
   129    82    73   am
   130    71    72    1
   131   202   203    1
   132   206   203    1
   133    83    84    1
   134    72    73    1
   135   203   204    1
   136    73    74    2
   137    84    90   am
   138    84    85    2
   139    90    91    1
   140   101    99    1
   141   136   135    2
   142   109   107    1
   143   204   205    2
   144    91    92    1
   145   135   134    1
   146   107   106    1
   147    99    98    1
   148    98   100    1
   149    98    95    1
   150   125   124    2
   151   134   133    1
   152   134   137    1
   153    92    93    2
   154   138   137    1
   155   106   108    1
   156   106   103    1
   157   124   133   am
   158   124   123    1
   159    94    95    1
   160   102   103    1
   161   102    96   am
   162    95    96    1
   163   123   122    1
   164   123   126    1
   165     8     6   am
   166   103   104    1
   167    96    97    2
   168   119   117   ar
   169   119   120   ar
   170     6     5    1
   171     6     7    2
   172   126   127    1
   173     5     2    1
   174   131   130    1
   175   121   120    1
   176   117   115   ar
   177   104   105    2
   178     4     3    2
   179   120   118   ar
   180   127   128    1
   181   130   132    1
   182   130   129    2
   183   115   114    1
   184   115   116   ar
   185   128   129    1
   186     3     2    1
   187     2     1    1
   188   118   116   ar
   189   114   111    1
   190   110   111    1
   191   111   112    1
   192   112   113    2
