@<TRIPOS>MOLECULE
tmp/1xg0D02.pdb
 152 142 0 0 0
SMALL
GASTEIGER

@<TRIPOS>ATOM
      1  N        -20.1520   39.0580   43.1710 N.3    19  VAL19      -0.1245
      2  CA       -20.7780   38.2610   44.2320 C.3    19  VAL19       0.1561
      3  C        -19.7180   37.9950   45.2820 C.2    19  VAL19       0.2260
      4  O        -18.8600   37.1210   45.1080 O.2    19  VAL19      -0.2867
      5  CB       -21.3920   36.9590   43.7040 C.3    19  VAL19       0.0252
      6  CG1      -21.9790   36.1290   44.8290 C.3    19  VAL19       0.0019
      7  CG2      -22.4740   37.2220   42.6430 C.3    19  VAL19       0.0019
      8  N        -21.9950   35.8410   48.4540 N.3    24  LEU24      -0.1245
      9  CA       -21.1440   34.6880   48.1800 C.3    24  LEU24       0.1561
     10  C        -21.4080   33.5320   49.1660 C.2    24  LEU24       0.2260
     11  O        -21.4840   32.3620   48.7670 O.2    24  LEU24      -0.2867
     12  CB       -19.6790   35.1290   48.2380 C.3    24  LEU24       0.0270
     13  CG       -18.6320   33.9770   48.2090 C.3    24  LEU24       0.0019
     14  CD1      -18.7310   33.1230   46.9690 C.3    24  LEU24       0.0001
     15  CD2      -17.2450   34.5190   48.3870 C.3    24  LEU24       0.0001
     16  N        -22.7520   29.8480   47.7440 N.3    28  LYS28      -0.1245
     17  CA       -22.1210   28.5480   47.9570 C.3    28  LYS28       0.1561
     18  C        -23.0490   27.5010   48.5480 C.2    28  LYS28       0.2260
     19  O        -22.7860   26.3300   48.4390 O.2    28  LYS28      -0.2867
     20  CB       -20.8550   28.6900   48.8080 C.3    28  LYS28       0.0271
     21  CG       -19.7190   29.2500   48.0230 C.3    28  LYS28       0.0035
     22  CD       -18.4220   29.2700   48.8060 C.3    28  LYS28       0.0206
     23  CE       -18.4270   30.2930   49.9050 C.3    28  LYS28       0.1093
     24  NZ       -17.0680   30.4850   50.4850 N.3    28  LYS28      -0.1314
     25  N        -17.3060   25.5860   47.8580 N.3    35  ASN35      -0.1225
     26  CA       -15.9080   25.9820   47.8180 C.3    35  ASN35       0.1785
     27  C        -15.1560   25.2160   46.7320 C.2    35  ASN35       0.2597
     28  O        -14.3660   25.7810   45.9760 O.2    35  ASN35      -0.2718
     29  CB       -15.2210   25.7020   49.1560 C.3    35  ASN35       0.1169
     30  CG       -15.6320   26.6640   50.2640 C.2    35  ASN35       0.2627
     31  OD1      -15.7140   27.8820   50.0750 O.2    35  ASN35      -0.2716
     32  ND2      -15.8070   26.0480   51.4270 N.am   35  ASN35      -0.0877
     33  N        -15.3480   23.8820   46.7040 N.am   36  LYS36      -0.1980
     34  CA       -14.6260   23.0650   45.7210 C.3    36  LYS36       0.1596
     35  C        -15.0210   23.4620   44.3050 C.2    36  LYS36       0.2287
     36  O        -14.1690   23.4550   43.3930 O.2    36  LYS36      -0.2864
     37  CB       -14.8510   21.5900   45.9490 C.3    36  LYS36       0.0298
     38  CG       -14.1940   20.9800   47.2060 C.3    36  LYS36       0.0038
     39  CD       -14.8840   19.7000   47.6330 C.3    36  LYS36       0.0206
     40  CE       -14.1060   18.6140   48.2440 C.3    36  LYS36       0.1093
     41  NZ       -14.6480   17.2520   47.7940 N.3    36  LYS36      -0.1314
     42  N        -15.9700   26.4270   43.2300 N.3    38  LEU38      -0.1231
     43  CA       -15.3030   27.6900   42.8650 C.3    38  LEU38       0.1693
     44  C        -13.8100   27.4590   42.6280 C.2    38  LEU38       0.2592
     45  O        -13.2290   28.0400   41.6840 O.2    38  LEU38      -0.2718
     46  CB       -15.5680   28.7530   43.9160 C.3    38  LEU38       0.0284
     47  CG       -17.0450   29.1100   44.0770 C.3    38  LEU38       0.0019
     48  CD1      -17.2270   30.2370   45.0900 C.3    38  LEU38       0.0001
     49  CD2      -17.7460   29.4670   42.7570 C.3    38  LEU38       0.0001
     50  N        -13.1560   26.5990   43.4350 N.am   39  ASP39      -0.1960
     51  CA       -11.7650   26.2490   43.1550 C.3    39  ASP39       0.1840
     52  C        -11.6450   25.5680   41.7600 C.2    39  ASP39       0.2622
     53  O        -10.6620   25.8020   41.0450 O.2    39  ASP39      -0.2715
     54  CB       -11.2370   25.2690   44.2270 C.3    39  ASP39       0.1450
     55  CG       -10.9280   25.9290   45.5530 C.2    39  ASP39       0.3671
     56  OD1      -10.3830   27.0610   45.5880 O.co2  39  ASP39      -0.2456
     57  OD2      -11.2210   25.2620   46.5930 O.co2  39  ASP39      -0.2456
     58  N        -12.6100   24.7310   41.4210 N.am   40  SER40      -0.1950
     59  CA       -12.5240   23.9930   40.1570 C.3    40  SER40       0.1924
     60  C        -12.6140   24.9970   38.9840 C.2    40  SER40       0.2314
     61  O        -11.8160   24.9580   38.0520 O.2    40  SER40      -0.2863
     62  CB       -13.5610   22.8540   40.0770 C.3    40  SER40       0.2116
     63  OG       -14.8860   23.2640   39.8880 O.3    40  SER40      -0.2180
     64  N        -11.8870   28.1530   39.0700 N.3    42  ASN42      -0.1225
     65  CA       -10.6630   28.9790   39.0820 C.3    42  ASN42       0.1785
     66  C         -9.5230   28.2690   38.3580 C.2    42  ASN42       0.2597
     67  O         -8.7760   28.8910   37.5850 O.2    42  ASN42      -0.2718
     68  CB       -10.3190   29.3010   40.5400 C.3    42  ASN42       0.1169
     69  CG        -9.4100   30.4850   40.6940 C.2    42  ASN42       0.2627
     70  OD1       -9.1890   31.2730   39.7580 O.2    42  ASN42      -0.2716
     71  ND2       -8.9470   30.6760   41.9260 N.am   42  ASN42      -0.0877
     72  N         -9.3610   26.9810   38.6250 N.am   43  SER43      -0.1952
     73  CA        -8.2200   26.2290   38.0430 C.3    43  SER43       0.1924
     74  C         -8.3560   26.0560   36.5340 C.2    43  SER43       0.2314
     75  O         -7.3390   25.9240   35.8510 O.2    43  SER43      -0.2863
     76  CB        -8.0970   24.8680   38.7110 C.3    43  SER43       0.2116
     77  OG        -9.1190   23.9550   38.4150 O.3    43  SER43      -0.2180
     78  N         -6.9710   19.4070   35.7430 N.3   140  PHE140     -0.1227
     79  CA        -6.8510   20.5370   36.6660 C.3   140  PHE140      0.1736
     80  C         -7.7380   20.3640   37.8840 C.2   140  PHE140      0.2595
     81  O         -7.3610   20.7380   39.0030 O.2   140  PHE140     -0.2718
     82  CB        -7.1600   21.8810   35.9900 C.3   140  PHE140      0.0547
     83  CG        -6.0260   22.3740   35.1210 C.ar  140  PHE140     -0.0202
     84  CD1       -4.7970   22.6050   35.6660 C.ar  140  PHE140     -0.0042
     85  CD2       -6.2080   22.6410   33.7780 C.ar  140  PHE140     -0.0042
     86  CE1       -3.7530   23.0640   34.8780 C.ar  140  PHE140     -0.0003
     87  CE2       -5.1850   23.0880   32.9990 C.ar  140  PHE140     -0.0003
     88  CZ        -3.9880   23.2710   33.5200 C.ar  140  PHE140     -0.0000
     89  N         -8.9360   19.8610   37.6780 N.am  141  VAL141     -0.1980
     90  CA        -9.9430   19.6760   38.7640 C.3   141  VAL141      0.1595
     91  C         -9.5260   18.4920   39.6530 C.2   141  VAL141      0.2287
     92  O         -9.3270   18.6580   40.8650 O.2   141  VAL141     -0.2864
     93  CB       -11.3550   19.5570   38.2110 C.3   141  VAL141      0.0276
     94  CG1      -12.3160   19.2630   39.3610 C.3   141  VAL141      0.0022
     95  CG2      -11.7280   20.8330   37.4970 C.3   141  VAL141      0.0022
     96  N         -6.7780   16.8120   40.3940 N.3   143  ASN143     -0.1240
     97  CA        -5.3200   16.8450   40.3630 C.3   143  ASN143      0.1653
     98  C         -4.7950   16.1060   41.5710 C.2   143  ASN143      0.2266
     99  O         -4.9630   16.5630   42.6950 O.2   143  ASN143     -0.2867
    100  CB        -4.8430   18.2980   40.3740 C.3   143  ASN143      0.1155
    101  CG        -3.3550   18.4050   40.2940 C.2   143  ASN143      0.2627
    102  OD1       -2.6280   17.4400   40.5520 O.2   143  ASN143     -0.2716
    103  ND2       -2.8770   19.6120   39.9860 N.am  143  ASN143     -0.0877
    104  N         -0.3570   21.7210   44.8770 N.3   150  LEU150     -0.1245
    105  CA        -1.7480   22.1400   44.6990 C.3   150  LEU150      0.1561
    106  C         -1.9310   23.5430   45.2550 C.2   150  LEU150      0.2260
    107  O         -1.3570   23.9150   46.2590 O.2   150  LEU150     -0.2867
    108  CB        -2.6810   21.1880   45.4460 C.3   150  LEU150      0.0270
    109  CG        -2.5730   19.7470   45.0620 C.3   150  LEU150      0.0019
    110  CD1       -3.5230   18.9200   45.9420 C.3   150  LEU150      0.0001
    111  CD2       -2.8670   19.4600   43.6030 C.3   150  LEU150      0.0001
    112  N         -4.8290   24.3780   46.4020 N.3   152  THR152     -0.1204
    113  CA        -5.9700   24.1480   47.2720 C.3   152  THR152      0.1979
    114  C         -5.6170   23.1320   48.3340 C.2   152  THR152      0.2460
    115  O         -4.6850   22.3300   48.1680 O.2   152  THR152     -0.2732
    116  CB        -7.1520   23.6360   46.4190 C.3   152  THR152      0.1783
    117  OG1       -6.6950   22.5840   45.5530 O.3   152  THR152     -0.2211
    118  CG2       -7.7790   24.7500   45.6470 C.3   152  THR152      0.0376
    119  N         -6.4090   23.0970   49.4270 N.am  153  PRO153     -0.2717
    120  CA        -6.2250   22.0330   50.4100 C.3   153  PRO153      0.1535
    121  C         -6.5090   20.6980   49.7580 C.2   153  PRO153      0.2598
    122  O         -7.5310   20.5590   49.0600 O.2   153  PRO153     -0.2715
    123  CB        -7.2550   22.3570   51.5030 C.3   153  PRO153      0.0310
    124  CG        -7.6220   23.7870   51.2850 C.3   153  PRO153      0.0237
    125  CD        -7.5370   23.9760   49.7750 C.3   153  PRO153      0.0939
    126  N         -5.6770   19.6790   49.9780 N.am  154  GLN154     -0.1964
    127  CA        -5.8530   18.4120   49.2840 C.3   154  GLN154      0.1733
    128  C         -7.1700   17.7690   49.6530 C.2   154  GLN154      0.2616
    129  O         -7.5850   17.7720   50.8270 O.2   154  GLN154     -0.2715
    130  CB        -4.7010   17.4600   49.6040 C.3   154  GLN154      0.0408
    131  CG        -4.6460   16.9250   51.0420 C.3   154  GLN154      0.0908
    132  CD        -3.5920   15.7730   51.2060 C.2   154  GLN154      0.2608
    133  OE1       -3.8200   14.6880   50.6560 O.2   154  GLN154     -0.2717
    134  NE2       -2.5000   15.9760   51.9690 N.am  154  GLN154     -0.0878
    135  N         -7.8160   17.1820   48.6600 N.am  155  GLY155     -0.1955
    136  CA        -9.0460   16.4190   48.8400 C.3   155  GLY155      0.1869
    137  C         -9.4900   15.8790   47.5020 C.2   155  GLY155      0.2309
    138  O         -8.8370   16.0950   46.4700 O.2   155  GLY155     -0.2863
    139  N        -11.7080   15.8330   44.3790 N.3   157  CYS157     -0.1235
    140  CA       -12.5820   16.6100   43.4890 C.3   157  CYS157      0.1677
    141  C        -12.9800   15.7960   42.2590 C.2   157  CYS157      0.2270
    142  O        -13.3750   16.3480   41.2340 O.2   157  CYS157     -0.2867
    143  CB       -11.8860   17.8970   43.0460 C.3   157  CYS157      0.0956
    144  SG       -11.5240   18.9500   44.4750 S.3   157  CYS157     -0.0801
    145  N        -16.6170   16.6780   40.8550 N.3   160  LEU160     -0.1245
    146  CA       -16.6590   17.8950   40.0400 C.3   160  LEU160      0.1561
    147  C        -15.9530   17.6870   38.6840 C.2   160  LEU160      0.2260
    148  O        -16.3810   18.2600   37.6720 O.2   160  LEU160     -0.2867
    149  CB       -16.0970   19.0650   40.8030 C.3   160  LEU160      0.0270
    150  CG       -17.0420   19.6310   41.8730 C.3   160  LEU160      0.0019
    151  CD1      -16.2850   20.3520   42.9480 C.3   160  LEU160      0.0001
    152  CD2      -18.0880   20.5370   41.2550 C.3   160  LEU160      0.0001
@<TRIPOS>BOND
     1    87    88   ar
     2    87    85   ar
     3    88    86   ar
     4    85    83   ar
     5    86    84   ar
     6    83    84   ar
     7    83    82    1
     8    78    79    1
     9    75    74    2
    10    82    79    1
    11    74    73    1
    12    79    80    1
    13    95    93    1
    14    67    66    2
    15   148   147    2
    16    89    80   am
    17    89    90    1
    18    80    81    2
    19    73    72    1
    20    73    76    1
    21    61    60    2
    22    93    90    1
    23    93    94    1
    24    66    72   am
    25    66    65    1
    26    77    76    1
    27   147   146    1
    28    90    91    1
    29    60    59    1
    30    64    65    1
    31    65    68    1
    32    91    92    2
    33    70    69    2
    34    63    62    1
    35   103   101   am
    36   146   149    1
    37   146   145    1
    38    62    59    1
    39    59    58    1
    40   101   100    1
    41   101   102    2
    42    97   100    1
    43    97    96    1
    44    97    98    1
    45    68    69    1
    46    69    71   am
    47   149   150    1
    48    53    52    2
    49   142   141    2
    50   152   150    1
    51    58    52   am
    52    98    99    2
    53    45    44    2
    54    52    51    1
    55   150   151    1
    56   141   140    1
    57    44    43    1
    58    44    50   am
    59     7     5    1
    60    49    47    1
    61    43    42    1
    62    43    46    1
    63   143   140    1
    64   143   144    1
    65    51    50    1
    66    51    54    1
    67     1     2    1
    68    36    35    2
    69   140   139    1
    70   111   109    1
    71     5     2    1
    72     5     6    1
    73    46    47    1
    74    47    48    1
    75    54    55    1
    76     2     3    1
    77    35    34    1
    78   105   104    1
    79   105   106    1
    80   105   108    1
    81   109   108    1
    82   109   110    1
    83     4     3    2
    84   106   107    2
    85    55    56   ar
    86    55    57   ar
    87   117   116    1
    88   118   116    1
    89    34    37    1
    90    34    33    1
    91    37    38    1
    92    28    27    2
    93   112   113    1
    94   116   113    1
    95   138   137    2
    96    33    27   am
    97    27    26    1
    98    14    13    1
    99    38    39    1
   100   113   114    1
   101   137   136    1
   102    39    40    1
   103    16    17    1
   104    41    40    1
   105    26    25    1
   106    26    29    1
   107    17    18    1
   108    17    20    1
   109    21    22    1
   110    21    20    1
   111   115   114    2
   112     9    12    1
   113     9     8    1
   114     9    10    1
   115    13    12    1
   116    13    15    1
   117   114   119   am
   118    19    18    2
   119   135   136    1
   120   135   128   am
   121    11    10    2
   122    22    23    1
   123   122   121    2
   124    29    30    1
   125   127   130    1
   126   127   128    1
   127   127   126    1
   128   119   125    1
   129   119   120    1
   130   130   131    1
   131   128   129    2
   132   121   126   am
   133   121   120    1
   134   125   124    1
   135    23    24    1
   136    31    30    2
   137    30    32   am
   138   120   123    1
   139   133   132    2
   140   131   132    1
   141   132   134   am
   142   124   123    1
