@<TRIPOS>MOLECULE
tmp/1xg3A00.pdb
 117 108 0 0 0
SMALL
GASTEIGER

@<TRIPOS>ATOM
      1  N         27.8960   -0.9300    9.7700 N.3    44  SER44      -0.1217
      2  CA        27.4180   -2.2840    9.4720 C.3    44  SER44       0.1889
      3  C         28.0470   -3.3530   10.3560 C.2    44  SER44       0.2288
      4  O         29.2650   -3.3660   10.5240 O.2    44  SER44      -0.2866
      5  CB        27.7450   -2.6260    8.0170 C.3    44  SER44       0.2089
      6  OG        27.7240   -4.0310    7.8050 O.3    44  SER44      -0.2183
      7  N         28.0270   -6.5330    9.6120 N.3    46  GLY46      -0.1225
      8  CA        28.7320   -7.4060    8.6870 C.3    46  GLY46       0.1811
      9  C         30.0690   -6.7920    8.2860 C.2    46  GLY46       0.2280
     10  O         31.0210   -7.5170    7.9440 O.2    46  GLY46      -0.2866
     11  N         30.0760  -12.7080    9.1500 N.3    57  ASP57      -0.1239
     12  CA        29.0190  -11.9900    9.8610 C.3    57  ASP57       0.1674
     13  C         28.1520  -13.0910   10.4710 C.2    57  ASP57       0.2266
     14  O         27.0400  -13.3630   10.0080 O.2    57  ASP57      -0.2867
     15  CB        28.2130  -11.1480    8.8590 C.3    57  ASP57       0.1410
     16  CG        27.1110  -10.3320    9.5140 C.2    57  ASP57       0.3668
     17  OD1       27.1650  -10.0980   10.7420 O.co2  57  ASP57      -0.2456
     18  OD2       26.1940   -9.9000    8.7820 O.co2  57  ASP57      -0.2456
     19  N         23.5740  -15.2480   14.9150 N.3   120  LYS120     -0.1245
     20  CA        22.8400  -14.6940   13.7830 C.3   120  LYS120      0.1561
     21  C         23.5850  -14.8330   12.4640 C.2   120  LYS120      0.2260
     22  O         24.7760  -15.1450   12.4290 O.2   120  LYS120     -0.2867
     23  CB        22.4520  -13.2220   14.0450 C.3   120  LYS120      0.0271
     24  CG        23.5940  -12.2490   14.3770 C.3   120  LYS120      0.0035
     25  CD        24.5610  -12.0460   13.2140 C.3   120  LYS120      0.0206
     26  CE        23.8540  -11.5640   11.9590 C.3   120  LYS120      0.1093
     27  NZ        23.1900  -10.2340   12.1250 N.3   120  LYS120     -0.1314
     28  N         23.5720  -13.2920    8.0610 N.3   122  SER122     -0.1202
     29  CA        23.1580  -12.1950    7.1820 C.3   122  SER122      0.2020
     30  C         21.6700  -12.3830    6.8880 C.2   122  SER122      0.2619
     31  O         21.2080  -13.5110    6.7110 O.2   122  SER122     -0.2717
     32  CB        23.9460  -12.2390    5.8720 C.3   122  SER122      0.2103
     33  OG        23.1850  -11.7050    4.7990 O.3   122  SER122     -0.2182
     34  N         20.9210  -11.2900    6.8390 N.am  123  GLY123     -0.1942
     35  CA        19.4970  -11.4050    6.5730 C.3   123  GLY123      0.2014
     36  C         19.2120  -11.8940    5.1710 C.2   123  GLY123      0.2638
     37  O         18.0760  -12.2610    4.8440 O.2   123  GLY123     -0.2714
     38  N         20.2460  -11.9100    4.3340 N.am  124  HIS124     -0.1973
     39  CA        20.0850  -12.3430    2.9550 C.3   124  HIS124      0.1656
     40  C         20.6310  -13.7380    2.6710 C.2   124  HIS124      0.2291
     41  O         20.8480  -14.1110    1.5090 O.2   124  HIS124     -0.2864
     42  CB        20.7070  -11.3040    2.0210 C.3   124  HIS124      0.0771
     43  CG        19.9510  -10.0110    1.9960 C.ar  124  HIS124      0.0820
     44  ND1       19.1040   -9.6640    0.9650 N.ar  124  HIS124     -0.2267
     45  CD2       19.8510   -9.0180    2.9130 C.ar  124  HIS124      0.1154
     46  CE1       18.5150   -8.5150    1.2460 C.ar  124  HIS124      0.1986
     47  NE2       18.9500   -8.1020    2.4230 N.ar  124  HIS124     -0.2212
     48  N         14.5470   -4.7560   13.9810 N.3   157  ARG157     -0.1245
     49  CA        14.6860   -5.4190   12.6910 C.3   157  ARG157      0.1563
     50  C         14.0690   -6.8120   12.7960 C.2   157  ARG157      0.2260
     51  O         14.2760   -7.5140   13.7890 O.2   157  ARG157     -0.2867
     52  CB        16.1650   -5.5500   12.3010 C.3   157  ARG157      0.0307
     53  CG        16.4650   -6.6880   11.3200 C.3   157  ARG157      0.0489
     54  CD        17.9260   -6.7210   10.8940 C.3   157  ARG157      0.2205
     55  NE        18.2830   -8.0100   10.3070 N.pl3 157  ARG157     -0.0865
     56  CZ        19.3850   -8.2420    9.5940 C.cat 157  ARG157      0.5346
     57  NH1       20.2610   -7.2660    9.3610 N.pl3 157  ARG157      0.1354
     58  NH2       19.6120   -9.4580    9.1090 N.pl3 157  ARG157      0.1354
     59  N         13.6990   -6.8690    7.1880 N.3   187  GLU187     -0.1245
     60  CA        14.8090   -7.3350    6.3630 C.3   187  GLU187      0.1567
     61  C         14.5030   -8.1920    5.1400 C.2   187  GLU187      0.2260
     62  O         13.5510   -8.9770    5.1210 O.2   187  GLU187     -0.2867
     63  CB        15.8170   -8.0770    7.2510 C.3   187  GLU187      0.0388
     64  CG        16.9060   -8.7990    6.4850 C.3   187  GLU187      0.1160
     65  CD        17.9440   -7.8650    5.9110 C.2   187  GLU187      0.3649
     66  OE1       19.1380   -8.0690    6.2260 O.co2 187  GLU187     -0.2457
     67  OE2       17.5800   -6.9370    5.1510 O.co2 187  GLU187     -0.2457
     68  N         16.6560   -2.0380    3.4130 N.3   209  ASN209     -0.1240
     69  CA        18.0620   -2.4350    3.3050 C.3   209  ASN209      0.1653
     70  C         18.3700   -2.7440    1.8460 C.2   209  ASN209      0.2266
     71  O         18.1290   -3.8530    1.3780 O.2   209  ASN209     -0.2867
     72  CB        18.3130   -3.6770    4.1700 C.3   209  ASN209      0.1155
     73  CG        19.7330   -4.2080    4.0510 C.2   209  ASN209      0.2627
     74  OD1       20.6380   -3.3830    3.5370 O.2   209  ASN209     -0.2716
     75  ND2       20.0090   -5.3510    4.4260 N.am  209  ASN209     -0.0877
     76  N         20.9180   -3.6080    0.0190 N.3   211  THR211     -0.1203
     77  CA        22.2360   -4.2050   -0.1140 C.3   211  THR211      0.1994
     78  C         22.3340   -4.9920   -1.4250 C.2   211  THR211      0.2617
     79  O         21.3220   -5.4810   -1.9510 O.2   211  THR211     -0.2717
     80  CB        22.5410   -5.1310    1.0790 C.3   211  THR211      0.1784
     81  OG1       23.9360   -5.4400    1.0920 O.3   211  THR211     -0.2211
     82  CG2       21.7270   -6.4250    0.9910 C.3   211  THR211      0.0376
     83  N         23.5540   -5.1040   -1.9470 N.am  212  GLU212     -0.1979
     84  CA        23.7930   -5.8110   -3.1970 C.3   212  GLU212      0.1602
     85  C         23.8550   -7.3190   -3.0470 C.2   212  GLU212      0.2287
     86  O         24.1170   -7.8420   -1.9680 O.2   212  GLU212     -0.2864
     87  CB        25.1230   -5.3880   -3.8290 C.3   212  GLU212      0.0415
     88  CG        25.3100   -3.9100   -4.0830 C.3   212  GLU212      0.1163
     89  CD        25.6740   -3.1450   -2.8340 C.2   212  GLU212      0.3649
     90  OE1       26.2320   -3.7670   -1.9030 O.co2 212  GLU212     -0.2457
     91  OE2       25.4290   -1.9180   -2.7990 O.co2 212  GLU212     -0.2457
     92  N         24.3420   -0.5690    3.2460 N.3   235  PRO235     -0.2102
     93  CA        25.2890   -1.0530    4.2520 C.3   235  PRO235      0.1504
     94  C         26.7340   -1.3470    3.9210 C.2   235  PRO235      0.2575
     95  O         27.6100   -1.0030    4.7160 O.2   235  PRO235     -0.2718
     96  CB        24.5690   -2.2630    4.8520 C.3   235  PRO235      0.0282
     97  CG        23.8020   -2.8000    3.7090 C.3   235  PRO235      0.0208
     98  CD        23.2780   -1.5630    3.0070 C.3   235  PRO235      0.0893
     99  N         26.9970   -1.9620    2.7740 N.am  236  LEU236     -0.1980
    100  CA        28.3680   -2.3110    2.4290 C.3   236  LEU236      0.1596
    101  C         28.8070   -1.8790    1.0410 C.2   236  LEU236      0.2287
    102  O         29.9140   -2.2110    0.6150 O.2   236  LEU236     -0.2864
    103  CB        28.5590   -3.8280    2.5580 C.3   236  LEU236      0.0297
    104  CG        28.4300   -4.4580    3.9500 C.3   236  LEU236      0.0022
    105  CD1       28.4640   -5.9820    3.8200 C.3   236  LEU236      0.0001
    106  CD2       29.5550   -3.9660    4.8510 C.3   236  LEU236      0.0001
    107  N         32.4460   -2.8480   -0.7010 N.3   240  ARG240     -0.1245
    108  CA        32.5960   -3.8100   -1.8020 C.3   240  ARG240      0.1563
    109  C         33.4940   -3.2650   -2.9070 C.2   240  ARG240      0.2260
    110  O         34.3460   -3.9730   -3.4340 O.2   240  ARG240     -0.2867
    111  CB        31.2340   -4.1840   -2.3990 C.3   240  ARG240      0.0307
    112  CG        30.2470   -4.8160   -1.4200 C.3   240  ARG240      0.0489
    113  CD        29.1600   -5.5800   -2.1870 C.3   240  ARG240      0.2205
    114  NE        27.9920   -5.8850   -1.3570 N.pl3 240  ARG240     -0.0865
    115  CZ        27.9520   -6.8280   -0.4200 C.cat 240  ARG240      0.5346
    116  NH1       29.0190   -7.5840   -0.1710 N.pl3 240  ARG240      0.1354
    117  NH2       26.8320   -7.0200    0.2660 N.pl3 240  ARG240      0.1354
@<TRIPOS>BOND
     1    88    87    1
     2    88    89    1
     3    87    84    1
     4   110   109    2
     5    84    85    1
     6    84    83    1
     7    85    86    2
     8   109   108    1
     9    89    91   ar
    10    89    90   ar
    11   111   108    1
    12   111   112    1
    13   113   112    1
    14   113   114    1
    15    79    78    2
    16    83    78   am
    17   108   107    1
    18    78    77    1
    19   114   115    2
    20   115   116    1
    21   115   117    1
    22    77    76    1
    23    77    80    1
    24   102   101    2
    25    44    46   ar
    26    44    43   ar
    27    82    80    1
    28   101   100    1
    29    80    81    1
    30    46    47   ar
    31    71    70    2
    32    41    40    2
    33    70    69    1
    34    43    42    1
    35    43    45   ar
    36    42    39    1
    37    47    45   ar
    38   100   103    1
    39   100    99    1
    40   103   104    1
    41    40    39    1
    42    99    94   am
    43    39    38    1
    44    98    92    1
    45    98    97    1
    46    92    93    1
    47    69    68    1
    48    69    72    1
    49    74    73    2
    50    97    96    1
    51   105   104    1
    52    94    93    1
    53    94    95    2
    54   104   106    1
    55    73    72    1
    56    73    75   am
    57    93    96    1
    58    38    36   am
    59    33    32    1
    60    37    36    2
    61    62    61    2
    62    61    60    1
    63    67    65   ar
    64    36    35    1
    65    32    29    1
    66    65    66   ar
    67    65    64    1
    68    60    59    1
    69    60    63    1
    70    64    63    1
    71    35    34    1
    72    31    30    2
    73    34    30   am
    74    30    29    1
    75    29    28    1
    76     6     5    1
    77    10     9    2
    78     5     2    1
    79     9     8    1
    80     8     7    1
    81    18    16   ar
    82    15    16    1
    83    15    12    1
    84    58    56    1
    85    11    12    1
    86    57    56    1
    87     2     1    1
    88     2     3    1
    89    16    17   ar
    90    56    55    2
    91    12    13    1
    92    14    13    2
    93    55    54    1
    94     3     4    2
    95    54    53    1
    96    53    52    1
    97    26    27    1
    98    26    25    1
    99    52    49    1
   100    22    21    2
   101    21    20    1
   102    49    50    1
   103    49    48    1
   104    50    51    2
   105    25    24    1
   106    20    23    1
   107    20    19    1
   108    23    24    1
