@<TRIPOS>MOLECULE
tmp/1xg4D00.pdb
 156 145 0 0 0
SMALL
GASTEIGER

@<TRIPOS>ATOM
      1  N         37.7650   10.5810   42.4850 N.3    41  TYR41      -0.1241
      2  CA        38.9630   10.8690   41.7120 C.3    41  TYR41       0.1605
      3  C         39.6350    9.6530   41.0930 C.2    41  TYR41       0.2264
      4  O         39.7220    8.5890   41.7260 O.2    41  TYR41      -0.2867
      5  CB        39.9620   11.5400   42.6600 C.3    41  TYR41       0.0534
      6  CG        41.3040   11.9260   42.0790 C.ar   41  TYR41      -0.0201
      7  CD1       41.4150   12.9810   41.1710 C.ar   41  TYR41      -0.0009
      8  CD2       42.4820   11.3050   42.5180 C.ar   41  TYR41      -0.0009
      9  CE1       42.6710   13.4240   40.7220 C.ar   41  TYR41       0.0417
     10  CE2       43.7400   11.7390   42.0760 C.ar   41  TYR41       0.0417
     11  CZ        43.8210   12.8070   41.1810 C.ar   41  TYR41       0.1957
     12  OH        45.0560   13.2810   40.7960 O.3    41  TYR41      -0.2866
     13  N         43.0810    8.5750   40.1350 N.3    43  SER43      -0.1217
     14  CA        44.4930    8.8730   40.2990 C.3    43  SER43       0.1889
     15  C         45.3780    8.2780   39.2030 C.2    43  SER43       0.2288
     16  O         45.2480    7.1040   38.8680 O.2    43  SER43      -0.2866
     17  CB        44.9510    8.3390   41.6590 C.3    43  SER43       0.2089
     18  OG        46.3540    8.2040   41.6940 O.3    43  SER43      -0.2183
     19  N         48.5680    7.9580   39.5210 N.3    45  GLY45      -0.1225
     20  CA        49.4980    7.1060   40.2470 C.3    45  GLY45       0.1811
     21  C         48.8330    5.7760   40.5520 C.2    45  GLY45       0.2280
     22  O         49.5070    4.7610   40.7180 O.2    45  GLY45      -0.2866
     23  N         54.6840    5.3740   38.7100 N.3    56  ASP56      -0.1239
     24  CA        53.9840    6.5720   38.2300 C.3    56  ASP56       0.1674
     25  C         55.0670    7.4440   37.5670 C.2    56  ASP56       0.2266
     26  O         55.4950    8.4560   38.1250 O.2    56  ASP56      -0.2867
     27  CB        53.3420    7.2820   39.4330 C.3    56  ASP56       0.1410
     28  CG        52.5940    8.5530   39.0590 C.2    56  ASP56       0.3668
     29  OD1       52.3020    8.7580   37.8600 O.co2  56  ASP56      -0.2456
     30  OD2       52.2880    9.3410   39.9870 O.co2  56  ASP56      -0.2456
     31  N         43.0460   12.4990   36.7110 N.3    83  ASP83      -0.1239
     32  CA        44.4500   12.9140   36.6250 C.3    83  ASP83       0.1674
     33  C         44.8710   12.6890   35.1590 C.2    83  ASP83       0.2266
     34  O         44.9400   11.5470   34.7050 O.2    83  ASP83      -0.2867
     35  CB        45.2760   12.0180   37.5590 C.3    83  ASP83       0.1410
     36  CG        46.7630   12.3360   37.5490 C.2    83  ASP83       0.3668
     37  OD1       47.2510   13.0380   36.6370 O.co2  83  ASP83      -0.2456
     38  OD2       47.4480   11.8470   38.4720 O.co2  83  ASP83      -0.2456
     39  N         56.8510   12.4660   33.6190 N.3   119  LYS119     -0.1245
     40  CA        56.6130   13.0440   34.9350 C.3   119  LYS119      0.1561
     41  C         56.7680   12.0630   36.0840 C.2   119  LYS119      0.2260
     42  O         56.9290   10.8580   35.8780 O.2   119  LYS119     -0.2867
     43  CB        55.2140   13.6850   34.9980 C.3   119  LYS119      0.0271
     44  CG        54.0490   12.8250   34.4730 C.3   119  LYS119      0.0035
     45  CD        53.7880   11.5630   35.3000 C.3   119  LYS119      0.0206
     46  CE        53.4660   11.8530   36.7710 C.3   119  LYS119      0.1093
     47  NZ        52.2730   12.7350   36.9910 N.3   119  LYS119     -0.1314
     48  N         55.6810   11.6470   40.6290 N.3   121  SER121     -0.1202
     49  CA        54.8380   12.1380   41.7140 C.3   121  SER121      0.2020
     50  C         55.3330   13.5000   42.1920 C.2   121  SER121      0.2619
     51  O         56.5440   13.7450   42.2380 O.2   121  SER121     -0.2717
     52  CB        54.8590   11.1510   42.8830 C.3   121  SER121      0.2103
     53  OG        54.3480   11.7550   44.0610 O.3   121  SER121     -0.2182
     54  N         54.3950   14.3830   42.5340 N.am  122  GLY122     -0.1942
     55  CA        54.7590   15.7070   43.0150 C.3   122  GLY122      0.2014
     56  C         55.4910   15.6640   44.3480 C.2   122  GLY122      0.2638
     57  O         56.0320   16.6760   44.8040 O.2   122  GLY122     -0.2714
     58  N         55.5100   14.4940   44.9740 N.am  123  HIS123     -0.1973
     59  CA        56.1740   14.3160   46.2600 C.3   123  HIS123      0.1656
     60  C         57.5270   13.6210   46.1190 C.2   123  HIS123      0.2291
     61  O         58.1120   13.1750   47.1080 O.2   123  HIS123     -0.2864
     62  CB        55.2530   13.5440   47.2100 C.3   123  HIS123      0.0771
     63  CG        54.0050   14.2930   47.5520 C.ar  123  HIS123      0.0820
     64  ND1       53.9120   15.1220   48.6500 N.ar  123  HIS123     -0.2267
     65  CD2       52.8410   14.4380   46.8720 C.ar  123  HIS123      0.1154
     66  CE1       52.7480   15.7480   48.6300 C.ar  123  HIS123      0.1986
     67  NE2       52.0790   15.3510   47.5600 N.ar  123  HIS123     -0.2212
     68  N         47.5580   22.0650   37.3700 N.3   156  ARG156     -0.1245
     69  CA        48.3560   21.6650   38.5170 C.3   156  ARG156      0.1563
     70  C         49.7570   22.1960   38.2980 C.2   156  ARG156      0.2260
     71  O         50.2780   22.1330   37.1780 O.2   156  ARG156     -0.2867
     72  CB        48.4050   20.1290   38.6340 C.3   156  ARG156      0.0307
     73  CG        49.6140   19.6080   39.4220 C.3   156  ARG156      0.0489
     74  CD        49.5890   18.0980   39.6140 C.3   156  ARG156      0.2205
     75  NE        50.9280   17.5740   39.8910 N.pl3 156  ARG156     -0.0865
     76  CZ        51.1760   16.3500   40.3490 C.cat 156  ARG156      0.5346
     77  NH1       50.1720   15.5170   40.5960 N.pl3 156  ARG156      0.1354
     78  NH2       52.4290   15.9540   40.5440 N.pl3 156  ARG156      0.1354
     79  N         45.5660   23.5570   41.2450 N.3   184  PHE184     -0.1241
     80  CA        46.0700   22.4660   42.0650 C.3   184  PHE184      0.1605
     81  C         47.5520   22.7010   42.3570 C.2   184  PHE184      0.2264
     82  O         48.4260   22.3100   41.5750 O.2   184  PHE184     -0.2867
     83  CB        45.8420   21.1540   41.2840 C.3   184  PHE184      0.0534
     84  CG        46.3560   19.8940   41.9540 C.ar  184  PHE184     -0.0203
     85  CD1       47.1830   19.9280   43.0700 C.ar  184  PHE184     -0.0042
     86  CD2       46.0420   18.6500   41.3970 C.ar  184  PHE184     -0.0042
     87  CE1       47.6960   18.7520   43.6210 C.ar  184  PHE184     -0.0003
     88  CE2       46.5490   17.4620   41.9360 C.ar  184  PHE184     -0.0003
     89  CZ        47.3820   17.5140   43.0530 C.ar  184  PHE184     -0.0000
     90  N         50.5610   21.6190   43.8810 N.3   186  GLU186     -0.1245
     91  CA        51.0180   20.3400   44.3970 C.3   186  GLU186      0.1567
     92  C         52.1020   20.3760   45.4680 C.2   186  GLU186      0.2260
     93  O         52.9710   21.2530   45.4790 O.2   186  GLU186     -0.2867
     94  CB        51.4680   19.4790   43.2110 C.3   186  GLU186      0.0388
     95  CG        52.2720   18.2400   43.5540 C.3   186  GLU186      0.1160
     96  CD        51.4550   17.1410   44.2130 C.2   186  GLU186      0.3649
     97  OE1       51.7860   15.9600   43.9680 O.co2 186  GLU186     -0.2457
     98  OE2       50.5060   17.4380   44.9780 O.co2 186  GLU186     -0.2457
     99  N         46.0370   18.6120   47.8540 N.3   208  ASN208     -0.1240
    100  CA        46.3110   17.1780   47.7040 C.3   208  ASN208      0.1653
    101  C         46.8160   16.5980   49.0300 C.2   208  ASN208      0.2266
    102  O         48.0170   16.6600   49.3300 O.2   208  ASN208     -0.2867
    103  CB        47.3600   16.9740   46.6030 C.3   208  ASN208      0.1155
    104  CG        47.6860   15.5070   46.3570 C.2   208  ASN208      0.2627
    105  OD1       46.8300   14.6190   46.8440 O.2   208  ASN208     -0.2716
    106  ND2       48.7020   15.1810   45.7270 N.am  208  ASN208     -0.0877
    107  N         47.7230   13.7140   50.3150 N.3   210  THR210     -0.1203
    108  CA        48.1750   12.3450   50.1300 C.3   210  THR210      0.1994
    109  C         49.1370   11.9870   51.2710 C.2   210  THR210      0.2617
    110  O         49.7570   12.8650   51.8660 O.2   210  THR210     -0.2717
    111  CB        48.8620   12.1960   48.7570 C.3   210  THR210      0.1784
    112  OG1       49.1060   10.8120   48.4920 O.3   210  THR210     -0.2211
    113  CG2       50.1750   12.9730   48.7240 C.3   210  THR210      0.0376
    114  N         49.2350   10.7020   51.5860 N.am  211  GLU211     -0.1979
    115  CA        50.0910   10.2340   52.6750 C.3   211  GLU211      0.1602
    116  C         51.5500   10.0460   52.3020 C.2   211  GLU211      0.2287
    117  O         51.9040    9.9230   51.1290 O.2   211  GLU211     -0.2864
    118  CB        49.5800    8.8910   53.2220 C.3   211  GLU211      0.0415
    119  CG        48.1170    8.8680   53.6420 C.3   211  GLU211      0.1163
    120  CD        47.1510    8.7360   52.4660 C.2   211  GLU211      0.3649
    121  OE1       47.5780    8.3490   51.3520 O.co2 211  GLU211     -0.2457
    122  OE2       45.9530    9.0040   52.6720 O.co2 211  GLU211     -0.2457
    123  N         41.6520   16.6190   48.4390 N.3   232  LEU232     -0.1245
    124  CA        41.8500   15.3670   47.6920 C.3   232  LEU232      0.1561
    125  C         42.6310   14.3040   48.4740 C.2   232  LEU232      0.2260
    126  O         43.6370   14.6100   49.0990 O.2   232  LEU232     -0.2867
    127  CB        42.5900   15.6740   46.3870 C.3   232  LEU232      0.0270
    128  CG        42.8140   14.5160   45.4170 C.3   232  LEU232      0.0019
    129  CD1       41.4820   14.0860   44.8420 C.3   232  LEU232      0.0001
    130  CD2       43.7560   14.9450   44.3020 C.3   232  LEU232      0.0001
    131  N         43.9240   11.0920   47.1140 N.3   234  PRO234     -0.2102
    132  CA        44.1740   10.2700   45.9280 C.3   234  PRO234      0.1504
    133  C         44.3630    8.7640   45.9860 C.2   234  PRO234      0.2575
    134  O         43.8670    8.0600   45.1070 O.2   234  PRO234     -0.2718
    135  CB        45.3550   10.9810   45.2680 C.3   234  PRO234      0.0282
    136  CG        46.1490   11.4650   46.4370 C.3   234  PRO234      0.0208
    137  CD        45.0780   11.9700   47.3990 C.3   234  PRO234      0.0893
    138  N         45.0710    8.2670   46.9960 N.am  235  LEU235     -0.1980
    139  CA        45.3610    6.8390   47.0840 C.3   235  LEU235      0.1596
    140  C         45.1110    6.2080   48.4520 C.2   235  LEU235      0.2287
    141  O         45.4610    5.0470   48.6720 O.2   235  LEU235     -0.2864
    142  CB        46.8250    6.6110   46.6890 C.3   235  LEU235      0.0297
    143  CG        47.1820    6.9570   45.2370 C.3   235  LEU235      0.0022
    144  CD1       48.6980    7.0470   45.0840 C.3   235  LEU235      0.0001
    145  CD2       46.5880    5.8960   44.3050 C.3   235  LEU235      0.0001
    146  N         46.0120    2.3440   49.4790 N.3   239  ARG239     -0.1245
    147  CA        47.0880    1.9310   50.3810 C.3   239  ARG239      0.1563
    148  C         46.6020    0.9170   51.4160 C.2   239  ARG239      0.2260
    149  O         47.2860   -0.0700   51.6950 O.2   239  ARG239     -0.2867
    150  CB        47.7000    3.1470   51.0890 C.3   239  ARG239      0.0307
    151  CG        48.2450    4.2310   50.1550 C.3   239  ARG239      0.0489
    152  CD        49.1130    5.2150   50.9400 C.3   239  ARG239      0.2205
    153  NE        49.3910    6.4430   50.1950 N.pl3 239  ARG239     -0.0865
    154  CZ        50.1950    6.5250   49.1400 C.cat 239  ARG239      0.5346
    155  NH1       50.8280    5.4470   48.6810 N.pl3 239  ARG239      0.1354
    156  NH2       50.3570    7.6970   48.5330 N.pl3 239  ARG239      0.1354
@<TRIPOS>BOND
     1    39    40    1
     2    44    43    1
     3    44    45    1
     4    34    33    2
     5    40    43    1
     6    40    41    1
     7    33    32    1
     8    45    46    1
     9    42    41    2
    10    32    31    1
    11    32    35    1
    12    37    36   ar
    13    46    47    1
    14    71    70    2
    15    68    69    1
    16    36    35    1
    17    36    38   ar
    18    25    26    2
    19    25    24    1
    20    29    28   ar
    21    24    23    1
    22    24    27    1
    23    70    69    1
    24    69    72    1
    25    72    73    1
    26    16    15    2
    27    28    27    1
    28    28    30   ar
    29    15    14    1
    30    73    74    1
    31    19    20    1
    32    74    75    1
    33    75    76    2
    34    13    14    1
    35    20    21    1
    36    14    17    1
    37    76    78    1
    38    76    77    1
    39    21    22    2
    40    48    49    1
    41     9     7   ar
    42     9    11   ar
    43    12    11    1
    44     3     2    1
    45     3     4    2
    46     7     6   ar
    47    11    10   ar
    48    79    80    1
    49    83    84    1
    50    83    80    1
    51    86    88   ar
    52    86    84   ar
    53    82    81    2
    54    17    18    1
    55     2     1    1
    56     2     5    1
    57    49    50    1
    58    49    52    1
    59    88    89   ar
    60    84    85   ar
    61    80    81    1
    62    10     8   ar
    63     6     8   ar
    64     6     5    1
    65    50    51    2
    66    50    54   am
    67    54    55    1
    68    52    53    1
    69    55    56    1
    70    89    87   ar
    71    85    87   ar
    72    94    95    1
    73    94    91    1
    74    95    96    1
    75    90    91    1
    76    97    96   ar
    77    96    98   ar
    78   130   128    1
    79   145   143    1
    80    56    57    2
    81    56    58   am
    82    91    92    1
    83   129   128    1
    84    58    59    1
    85   144   143    1
    86   134   133    2
    87   143   142    1
    88   135   132    1
    89   135   136    1
    90   128   127    1
    91    92    93    2
    92   106   104   am
    93   132   133    1
    94   132   131    1
    95   133   138   am
    96    60    59    1
    97    60    61    2
    98    59    62    1
    99   104   103    1
   100   104   105    2
   101   127   124    1
   102   136   137    1
   103   103   100    1
   104   142   139    1
   105    65    63   ar
   106    65    67   ar
   107   138   139    1
   108   139   140    1
   109   131   137    1
   110    62    63    1
   111    63    64   ar
   112    67    66   ar
   113   124   123    1
   114   124   125    1
   115   100    99    1
   116   100   101    1
   117   140   141    2
   118   125   126    2
   119   112   111    1
   120   156   154    1
   121    66    64   ar
   122   155   154    1
   123   113   111    1
   124   111   108    1
   125   101   102    2
   126   154   153    2
   127   146   147    1
   128   108   107    1
   129   108   109    1
   130   151   152    1
   131   151   150    1
   132   153   152    1
   133   147   150    1
   134   147   148    1
   135   117   116    2
   136   109   114   am
   137   109   110    2
   138   121   120   ar
   139   148   149    2
   140   114   115    1
   141   116   115    1
   142   120   122   ar
   143   120   119    1
   144   115   118    1
   145   118   119    1
