@<TRIPOS>MOLECULE
tmp/1xgiB00.pdb
 141 130 0 0 0
SMALL
GASTEIGER

@<TRIPOS>ATOM
      1  N         76.7860    1.2630   29.3170 N.3    61  SER61      -0.1217
      2  CA        75.4630    1.6920   28.8540 C.3    61  SER61       0.1889
      3  C         74.5250    0.6550   28.2790 C.2    61  SER61       0.2288
      4  O         73.3470    0.9400   28.0610 O.2    61  SER61      -0.2866
      5  CB        75.5780    2.8340   27.8440 C.3    61  SER61       0.2089
      6  OG        75.8230    4.0440   28.5240 O.3    61  SER61      -0.2183
      7  N         71.3900    0.2090   30.1530 N.3    64  LYS64      -0.1245
      8  CA        70.2040    1.0080   29.9100 C.3    64  LYS64       0.1561
      9  C         69.0870    0.2320   29.2310 C.2    64  LYS64       0.2260
     10  O         67.9150    0.6250   29.3230 O.2    64  LYS64      -0.2867
     11  CB        70.5570    2.2460   29.0700 C.3    64  LYS64       0.0271
     12  CG        71.4520    3.2780   29.7920 C.3    64  LYS64       0.0035
     13  CD        71.8320    4.4170   28.8100 C.3    64  LYS64       0.0206
     14  CE        72.5640    5.5720   29.4820 C.3    64  LYS64       0.1093
     15  NZ        73.8160    5.1300   30.1630 N.3    64  LYS64      -0.1314
     16  N         75.1330   14.6260   30.6060 N.3   116  LEU116     -0.1231
     17  CA        75.6310   13.2970   30.2800 C.3   116  LEU116      0.1693
     18  C         75.9730   12.5260   31.5490 C.2   116  LEU116      0.2591
     19  O         75.6370   11.3510   31.6760 O.2   116  LEU116     -0.2718
     20  CB        76.8730   13.4140   29.4000 C.3   116  LEU116      0.0284
     21  CG        77.6740   12.1420   29.1330 C.3   116  LEU116      0.0019
     22  CD1       76.8090   11.1160   28.4240 C.3   116  LEU116      0.0001
     23  CD2       78.8800   12.5040   28.2860 C.3   116  LEU116      0.0001
     24  N         76.6500   13.1870   32.4820 N.am  117  GLN117     -0.1979
     25  CA        77.0180   12.5460   33.7240 C.3   117  GLN117      0.1601
     26  C         76.4890   13.3290   34.9090 C.2   117  GLN117      0.2287
     27  O         76.3440   14.5520   34.8470 O.2   117  GLN117     -0.2864
     28  CB        78.5400   12.4740   33.8910 C.3   117  GLN117      0.0394
     29  CG        79.3070   11.7680   32.7960 C.3   117  GLN117      0.0908
     30  CD        78.9810   10.2920   32.7010 C.2   117  GLN117      0.2608
     31  OE1       78.4240    9.6930   33.6330 O.2   117  GLN117     -0.2717
     32  NE2       79.3420    9.6880   31.5710 N.am  117  GLN117     -0.0878
     33  N         71.7720   12.4710   24.8050 N.3   147  TYR147     -0.1241
     34  CA        72.1230   11.2610   25.5350 C.3   147  TYR147      0.1605
     35  C         72.6540   11.6060   26.9110 C.2   147  TYR147      0.2264
     36  O         73.5790   12.4160   27.0470 O.2   147  TYR147     -0.2867
     37  CB        73.1370   10.4610   24.7260 C.3   147  TYR147      0.0534
     38  CG        73.4630    9.1100   25.3060 C.ar  147  TYR147     -0.0201
     39  CD1       74.5720    8.9390   26.1260 C.ar  147  TYR147     -0.0009
     40  CD2       72.6820    7.9880   24.9940 C.ar  147  TYR147     -0.0009
     41  CE1       74.9170    7.6710   26.6240 C.ar  147  TYR147      0.0417
     42  CE2       73.0120    6.7240   25.4850 C.ar  147  TYR147      0.0417
     43  CZ        74.1340    6.5780   26.2940 C.ar  147  TYR147      0.1957
     44  OH        74.4920    5.3370   26.7530 O.3   147  TYR147     -0.2866
     45  N         73.1520    9.9950   31.2500 N.3   149  ASN149     -0.1240
     46  CA        72.9680    9.0830   32.3730 C.3   149  ASN149      0.1653
     47  C         72.0530    9.6820   33.4360 C.2   149  ASN149      0.2266
     48  O         71.3400    8.9480   34.1340 O.2   149  ASN149     -0.2867
     49  CB        74.2880    8.7730   33.0680 C.3   149  ASN149      0.1155
     50  CG        75.2180    7.9340   32.2240 C.2   149  ASN149      0.2627
     51  OD1       74.8130    7.3010   31.2400 O.2   149  ASN149     -0.2716
     52  ND2       76.4830    7.9210   32.6140 N.am  149  ASN149     -0.0877
     53  N         92.6600   -0.3280   31.4060 N.3   201  ARG201     -0.1245
     54  CA        92.7680    1.0370   30.9290 C.3   201  ARG201      0.1563
     55  C         94.2270    1.4090   31.0980 C.2   201  ARG201      0.2260
     56  O         94.7450    1.3820   32.2130 O.2   201  ARG201     -0.2867
     57  CB        91.9030    1.9840   31.7660 C.3   201  ARG201      0.0307
     58  CG        91.8040    3.3730   31.1560 C.3   201  ARG201      0.0489
     59  CD        91.2180    4.3780   32.1240 C.3   201  ARG201      0.2205
     60  NE        90.6430    5.5100   31.4060 N.pl3 201  ARG201     -0.0865
     61  CZ        90.6320    6.7610   31.8600 C.cat 201  ARG201      0.5346
     62  NH1       91.1710    7.0470   33.0430 N.pl3 201  ARG201      0.1354
     63  NH2       90.0800    7.7260   31.1310 N.pl3 201  ARG201      0.1354
     64  N         84.6170   -0.6520   37.4430 N.3   208  VAL208     -0.1245
     65  CA        83.8580    0.5950   37.4540 C.3   208  VAL208      0.1561
     66  C         83.7030    1.1540   38.8780 C.2   208  VAL208      0.2260
     67  O         83.4850    0.4030   39.8200 O.2   208  VAL208     -0.2867
     68  CB        82.4660    0.3780   36.8120 C.3   208  VAL208      0.0252
     69  CG1       81.6660   -0.6360   37.6270 C.3   208  VAL208      0.0019
     70  CG2       81.7180    1.7080   36.7030 C.3   208  VAL208      0.0019
     71  N         74.5210    2.4160   34.1810 N.3   218  TYR218     -0.1241
     72  CA        75.6440    1.6150   33.6900 C.3   218  TYR218      0.1605
     73  C         76.1430    0.6100   34.7270 C.2   218  TYR218      0.2264
     74  O         77.3350    0.3200   34.7910 O.2   218  TYR218     -0.2867
     75  CB        76.7940    2.5490   33.2850 C.3   218  TYR218      0.0534
     76  CG        77.2530    3.4950   34.3760 C.ar  218  TYR218     -0.0201
     77  CD1       78.2200    3.1120   35.3010 C.ar  218  TYR218     -0.0009
     78  CD2       76.7200    4.7920   34.4760 C.ar  218  TYR218     -0.0009
     79  CE1       78.6540    3.9850   36.2960 C.ar  218  TYR218      0.0417
     80  CE2       77.1420    5.6730   35.4690 C.ar  218  TYR218      0.0417
     81  CZ        78.1090    5.2630   36.3740 C.ar  218  TYR218      0.1957
     82  OH        78.5180    6.1190   37.3670 O.3   218  TYR218     -0.2866
     83  N         81.2270    9.0150   19.1960 N.3   286  ASN286     -0.1240
     84  CA        80.7380    9.9200   20.2310 C.3   286  ASN286      0.1653
     85  C         80.5000   11.3790   19.8480 C.2   286  ASN286      0.2266
     86  O         79.7100   12.0660   20.4980 O.2   286  ASN286     -0.2867
     87  CB        81.6400    9.8250   21.4570 C.3   286  ASN286      0.1155
     88  CG        81.3940    8.5600   22.2400 C.2   286  ASN286      0.2627
     89  OD1       82.1980    8.1690   23.0780 O.2   286  ASN286     -0.2716
     90  ND2       80.2600    7.9110   21.9790 N.am  286  ASN286     -0.0877
     91  N         76.8200   11.5620   21.2150 N.3   290  LEU290     -0.1245
     92  CA        76.6760   12.3550   22.4260 C.3   290  LEU290      0.1561
     93  C         76.2330   13.7910   22.1770 C.2   290  LEU290      0.2260
     94  O         76.1170   14.5600   23.1160 O.2   290  LEU290     -0.2867
     95  CB        77.9860   12.3580   23.2210 C.3   290  LEU290      0.0270
     96  CG        78.5250   10.9770   23.6090 C.3   290  LEU290      0.0019
     97  CD1       79.8040   11.1540   24.4080 C.3   290  LEU290      0.0001
     98  CD2       77.4930   10.2040   24.4180 C.3   290  LEU290      0.0001
     99  N         75.3300    0.5160   22.3110 N.3   313  THR313     -0.1203
    100  CA        76.7650    0.4600   22.5830 C.3   313  THR313      0.1994
    101  C         76.9140    0.7500   24.0620 C.2   313  THR313      0.2618
    102  O         76.0400    1.3650   24.6610 O.2   313  THR313     -0.2717
    103  CB        77.5450    1.5540   21.8180 C.3   313  THR313      0.1784
    104  OG1       76.9990    2.8400   22.1490 O.3   313  THR313     -0.2211
    105  CG2       77.4260    1.3620   20.3270 C.3   313  THR313      0.0376
    106  N         78.0020    0.3000   24.6630 N.am  314  GLY314     -0.1942
    107  CA        78.2050    0.5660   26.0700 C.3   314  GLY314      0.2014
    108  C         79.6680    0.4720   26.4110 C.2   314  GLY314      0.2639
    109  O         80.4160   -0.2460   25.7410 O.2   314  GLY314     -0.2714
    110  N         80.0880    1.1780   27.4530 N.am  315  ALA315     -0.1963
    111  CA        81.4800    1.1480   27.8640 C.3   315  ALA315      0.1728
    112  C         81.6210    1.5910   29.3030 C.2   315  ALA315      0.2617
    113  O         80.6880    2.1350   29.8860 O.2   315  ALA315     -0.2715
    114  CB        82.3080    2.0740   26.9730 C.3   315  ALA315      0.0334
    115  N         82.7790    1.3010   29.8730 N.am  316  THR316     -0.1937
    116  CA        83.1460    1.7540   31.2040 C.3   316  THR316      0.2028
    117  C         84.6240    2.0860   31.0120 C.2   316  THR316      0.2642
    118  O         85.1190    2.0340   29.8800 O.2   316  THR316     -0.2714
    119  CB        82.9730    0.6820   32.3040 C.3   316  THR316      0.1808
    120  OG1       83.7260   -0.4910   31.9680 O.3   316  THR316     -0.2208
    121  CG2       81.4860    0.3410   32.4790 C.3   316  THR316      0.0379
    122  N         85.3230    2.4370   32.0810 N.am  317  GLY317     -0.1954
    123  CA        86.7280    2.7720   31.9490 C.3   317  GLY317      0.1869
    124  C         87.5480    1.6310   31.3560 C.2   317  GLY317      0.2309
    125  O         88.4430    1.8570   30.5400 O.2   317  GLY317     -0.2863
    126  N         88.1550   -0.7260   26.6490 N.3   340  ASN340     -0.1240
    127  CA        87.2550    0.2000   25.9860 C.3   340  ASN340      0.1653
    128  C         87.9380    0.6700   24.6990 C.2   340  ASN340      0.2266
    129  O         88.9620    1.3440   24.7440 O.2   340  ASN340     -0.2867
    130  CB        86.9610    1.3860   26.9160 C.3   340  ASN340      0.1155
    131  CG        86.1330    2.4720   26.2490 C.2   340  ASN340      0.2627
    132  OD1       85.4650    2.2440   25.2370 O.2   340  ASN340     -0.2716
    133  ND2       86.1620    3.6650   26.8310 N.am  340  ASN340     -0.0877
    134  N         83.7760    2.9670   19.4690 N.3   343  ASN343     -0.1240
    135  CA        82.4810    2.4140   19.0670 C.3   343  ASN343      0.1653
    136  C         82.3840    2.0550   17.5860 C.2   343  ASN343      0.2266
    137  O         81.8550    1.0000   17.2470 O.2   343  ASN343     -0.2867
    138  CB        81.3280    3.3800   19.3690 C.3   343  ASN343      0.1155
    139  CG        81.0930    3.5760   20.8520 C.2   343  ASN343      0.2627
    140  OD1       81.2710    2.6540   21.6520 O.2   343  ASN343     -0.2716
    141  ND2       80.6730    4.7770   21.2240 N.am  343  ASN343     -0.0877
@<TRIPOS>BOND
     1   137   136    2
     2   136   135    1
     3   135   138    1
     4   135   134    1
     5    83    84    1
     6   138   139    1
     7    85    84    1
     8    85    86    2
     9    84    87    1
    10   105   103    1
    11   139   141   am
    12   139   140    2
    13    91    92    1
    14    87    88    1
    15   103   104    1
    16   103   100    1
    17    90    88   am
    18    93    92    1
    19    93    94    2
    20    88    89    2
    21    99   100    1
    22    92    95    1
    23   100   101    1
    24    95    96    1
    25    96    97    1
    26    96    98    1
    27   101   102    2
    28   101   106   am
    29   106   107    1
    30   128   129    2
    31   128   127    1
    32    37    38    1
    33    37    34    1
    34    33    34    1
    35    40    38   ar
    36    40    42   ar
    37   132   131    2
    38    38    39   ar
    39    42    43   ar
    40    34    35    1
    41   109   108    2
    42   127   126    1
    43   127   130    1
    44   107   108    1
    45    39    41   ar
    46   131   133   am
    47   131   130    1
    48    43    41   ar
    49    43    44    1
    50   108   110   am
    51    35    36    2
    52   114   111    1
    53   110   111    1
    54     5     6    1
    55     5     2    1
    56   111   112    1
    57     4     3    2
    58     3     2    1
    59    23    21    1
    60    22    21    1
    61    13    14    1
    62    13    12    1
    63     2     1    1
    64    11    12    1
    65    11     8    1
    66    21    20    1
    67     9    10    2
    68     9     8    1
    69   112   115   am
    70   112   113    2
    71    20    17    1
    72    14    15    1
    73   115   116    1
    74   118   117    2
    75     8     7    1
    76    17    16    1
    77    17    18    1
    78   125   124    2
    79    54    55    1
    80    54    53    1
    81    54    57    1
    82   117   116    1
    83   117   122   am
    84    55    56    2
    85    63    61    1
    86    58    57    1
    87    58    59    1
    88   116   119    1
    89    51    50    2
    90    45    46    1
    91   124   123    1
    92    60    61    2
    93    60    59    1
    94    18    19    2
    95    18    24   am
    96    32    30   am
    97    61    62    1
    98   123   122    1
    99   120   119    1
   100    50    52   am
   101    50    49    1
   102   119   121    1
   103    46    49    1
   104    46    47    1
   105    24    25    1
   106    30    29    1
   107    30    31    2
   108    29    28    1
   109    75    72    1
   110    75    76    1
   111    47    48    2
   112    72    71    1
   113    72    73    1
   114    25    28    1
   115    25    26    1
   116    76    78   ar
   117    76    77   ar
   118    78    80   ar
   119    73    74    2
   120    27    26    2
   121    77    79   ar
   122    80    81   ar
   123    79    81   ar
   124    81    82    1
   125    70    68    1
   126    68    65    1
   127    68    69    1
   128    64    65    1
   129    65    66    1
   130    66    67    2
