@<TRIPOS>MOLECULE
tmp/1xgjB00.pdb
 147 136 0 0 0
SMALL
GASTEIGER

@<TRIPOS>ATOM
      1  N         -5.0160    1.0180   73.1470 N.3    61  SER61      -0.1217
      2  CA        -6.3500    1.4540   72.6640 C.3    61  SER61       0.1889
      3  C         -7.2790    0.4050   72.0820 C.2    61  SER61       0.2288
      4  O         -8.4370    0.7040   71.9060 O.2    61  SER61      -0.2866
      5  CB        -6.2680    2.6030   71.6550 C.3    61  SER61       0.2089
      6  OG        -5.8090    3.7770   72.3020 O.3    61  SER61      -0.2183
      7  N        -10.3250    0.0500   73.9410 N.3    64  LYS64      -0.1245
      8  CA       -11.4980    0.8820   73.6880 C.3    64  LYS64       0.1561
      9  C        -12.6200    0.1060   73.0120 C.2    64  LYS64       0.2260
     10  O        -13.7960    0.4990   73.1220 O.2    64  LYS64      -0.2867
     11  CB       -11.1130    2.1310   72.8370 C.3    64  LYS64       0.0271
     12  CG       -10.1880    3.0830   73.5930 C.3    64  LYS64       0.0035
     13  CD        -9.6670    4.2120   72.6920 C.3    64  LYS64       0.0206
     14  CE        -8.9140    5.3200   73.4880 C.3    64  LYS64       0.1093
     15  NZ        -7.6360    4.8910   74.1730 N.3    64  LYS64      -0.1314
     16  N         -6.3720   14.3780   74.5060 N.3   116  LEU116     -0.1231
     17  CA        -5.8840   13.0460   74.1920 C.3   116  LEU116      0.1693
     18  C         -5.5700   12.2910   75.4590 C.2   116  LEU116      0.2591
     19  O         -5.9280   11.1180   75.6030 O.2   116  LEU116     -0.2718
     20  CB        -4.6050   13.1000   73.3500 C.3   116  LEU116      0.0284
     21  CG        -3.9750   11.7330   73.0540 C.3   116  LEU116      0.0019
     22  CD1       -4.9910   10.8720   72.2560 C.3   116  LEU116      0.0001
     23  CD2       -2.6630   11.9320   72.2790 C.3   116  LEU116      0.0001
     24  N         -4.8790   12.9620   76.3630 N.am  117  GLN117     -0.1979
     25  CA        -4.5370   12.3520   77.6210 C.3   117  GLN117      0.1601
     26  C         -5.1300   13.0960   78.8060 C.2   117  GLN117      0.2287
     27  O         -5.3180   14.3090   78.7520 O.2   117  GLN117     -0.2864
     28  CB        -3.0380   12.3600   77.8480 C.3   117  GLN117      0.0394
     29  CG        -2.1890   11.6460   76.8420 C.3   117  GLN117      0.0908
     30  CD        -2.4600   10.1710   76.7840 C.2   117  GLN117      0.2608
     31  OE1       -3.0840    9.5890   77.6890 O.2   117  GLN117     -0.2717
     32  NE2       -1.9720    9.5340   75.7180 N.am  117  GLN117     -0.0878
     33  N         -9.6290   12.3470   68.7490 N.3   147  TYR147     -0.1241
     34  CA        -9.3110   11.1050   69.4470 C.3   147  TYR147      0.1605
     35  C         -8.8480   11.3990   70.8750 C.2   147  TYR147      0.2264
     36  O         -7.9150   12.1660   71.0940 O.2   147  TYR147     -0.2867
     37  CB        -8.2320   10.3390   68.6800 C.3   147  TYR147      0.0534
     38  CG        -7.9890    8.9470   69.2080 C.ar  147  TYR147     -0.0201
     39  CD1       -6.9260    8.6760   70.0670 C.ar  147  TYR147     -0.0009
     40  CD2       -8.8210    7.8800   68.8170 C.ar  147  TYR147     -0.0009
     41  CE1       -6.6740    7.3420   70.5240 C.ar  147  TYR147      0.0417
     42  CE2       -8.5920    6.5700   69.2650 C.ar  147  TYR147      0.0417
     43  CZ        -7.5230    6.3110   70.1050 C.ar  147  TYR147      0.1957
     44  OH        -7.2690    5.0180   70.4870 O.3   147  TYR147     -0.2866
     45  N         -8.4470    9.7610   75.1690 N.3   149  ASN149     -0.1240
     46  CA        -8.6410    8.8580   76.3010 C.3   149  ASN149      0.1653
     47  C         -9.5800    9.4850   77.3290 C.2   149  ASN149      0.2266
     48  O        -10.3550    8.7620   77.9900 O.2   149  ASN149     -0.2867
     49  CB        -7.3360    8.5490   77.0290 C.3   149  ASN149      0.1155
     50  CG        -6.4150    7.6500   76.2270 C.2   149  ASN149      0.2627
     51  OD1       -6.8590    6.9110   75.3500 O.2   149  ASN149     -0.2716
     52  ND2       -5.1180    7.7190   76.5270 N.am  149  ASN149     -0.0877
     53  N         10.7110   -0.9860   75.2370 N.3   201  ARG201     -0.1245
     54  CA        10.8040    0.3980   74.7890 C.3   201  ARG201      0.1563
     55  C         12.2760    0.7710   74.8690 C.2   201  ARG201      0.2260
     56  O         12.8640    0.8510   75.9610 O.2   201  ARG201     -0.2867
     57  CB         9.9550    1.3040   75.6800 C.3   201  ARG201      0.0307
     58  CG         9.9550    2.7360   75.2070 C.3   201  ARG201      0.0489
     59  CD         9.0730    3.5780   76.0730 C.3   201  ARG201      0.2205
     60  NE         9.0850    4.9720   75.6420 N.pl3 201  ARG201     -0.0865
     61  CZ        10.1140    5.7970   75.8160 C.cat 201  ARG201      0.5346
     62  NH1       10.0300    7.0530   75.3900 N.pl3 201  ARG201      0.1354
     63  NH2       11.2300    5.3720   76.4110 N.pl3 201  ARG201      0.1354
     64  N          2.7460   -1.0880   81.1830 N.3   208  VAL208     -0.1231
     65  CA         1.9940    0.1730   81.2250 C.3   208  VAL208      0.1692
     66  C          1.8330    0.6370   82.6840 C.2   208  VAL208      0.2592
     67  O          1.5750   -0.1650   83.5800 O.2   208  VAL208     -0.2718
     68  CB         0.6030   -0.0010   80.5730 C.3   208  VAL208      0.0266
     69  CG1       -0.2600   -0.9710   81.4070 C.3   208  VAL208      0.0020
     70  CG2       -0.0780    1.3600   80.4170 C.3   208  VAL208      0.0020
     71  N          2.0110    1.9200   82.9520 N.am  209  SER209     -0.1952
     72  CA         1.8540    2.3490   84.3350 C.3   209  SER209      0.1924
     73  C          0.4230    2.8580   84.6250 C.2   209  SER209      0.2314
     74  O         -0.3570    3.1360   83.7070 O.2   209  SER209     -0.2863
     75  CB         2.9230    3.3850   84.6750 C.3   209  SER209      0.2116
     76  OG         3.2460    4.1520   83.5290 O.3   209  SER209     -0.2180
     77  N         -7.2320    2.2370   78.0270 N.3   218  TYR218     -0.1241
     78  CA        -6.1170    1.4670   77.4500 C.3   218  TYR218      0.1605
     79  C         -5.6300    0.3310   78.3610 C.2   218  TYR218      0.2264
     80  O         -4.5000   -0.1630   78.2110 O.2   218  TYR218     -0.2867
     81  CB        -4.9550    2.4490   77.1520 C.3   218  TYR218      0.0534
     82  CG        -4.5210    3.3200   78.3290 C.ar  218  TYR218     -0.0201
     83  CD1       -3.6540    2.8370   79.2910 C.ar  218  TYR218     -0.0009
     84  CD2       -4.9720    4.6440   78.4630 C.ar  218  TYR218     -0.0009
     85  CE1       -3.2320    3.6220   80.3460 C.ar  218  TYR218      0.0417
     86  CE2       -4.5570    5.4500   79.5410 C.ar  218  TYR218      0.0417
     87  CZ        -3.6870    4.9290   80.4740 C.ar  218  TYR218      0.1957
     88  OH        -3.2720    5.6740   81.5680 O.3   218  TYR218     -0.2866
     89  N         -0.3900    8.6020   63.2070 N.3   286  ASN286     -0.1240
     90  CA        -0.8600    9.4830   64.2700 C.3   286  ASN286      0.1653
     91  C         -1.0300   10.9550   63.9220 C.2   286  ASN286      0.2266
     92  O         -1.8420   11.6450   64.5500 O.2   286  ASN286     -0.2867
     93  CB        -0.0140    9.2930   65.5370 C.3   286  ASN286      0.1155
     94  CG        -0.4020    8.0230   66.2760 C.2   286  ASN286      0.2627
     95  OD1       -1.4920    7.5030   66.0870 O.2   286  ASN286     -0.2716
     96  ND2        0.4690    7.5300   67.1080 N.am  286  ASN286     -0.0877
     97  N         -4.6930   11.2670   65.1990 N.3   290  LEU290     -0.1245
     98  CA        -4.8290   12.0900   66.3940 C.3   290  LEU290      0.1561
     99  C         -5.2230   13.5720   66.1690 C.2   290  LEU290      0.2260
    100  O         -5.2990   14.3380   67.1310 O.2   290  LEU290     -0.2867
    101  CB        -3.5280   12.0070   67.2030 C.3   290  LEU290      0.0270
    102  CG        -3.0860   10.5850   67.6000 C.3   290  LEU290      0.0019
    103  CD1       -1.8340   10.7250   68.4520 C.3   290  LEU290      0.0001
    104  CD2       -4.1680    9.8350   68.4000 C.3   290  LEU290      0.0001
    105  N         -6.3800    0.3030   66.0860 N.3   313  THR313     -0.1203
    106  CA        -4.9720    0.2680   66.4490 C.3   313  THR313      0.1994
    107  C         -4.9150    0.5000   67.9470 C.2   313  THR313      0.2618
    108  O         -5.8440    1.0570   68.5200 O.2   313  THR313     -0.2717
    109  CB        -4.1610    1.4250   65.7560 C.3   313  THR313      0.1784
    110  OG1       -4.7810    2.7010   66.0320 O.3   313  THR313     -0.2211
    111  CG2       -4.1610    1.2270   64.2440 C.3   313  THR313      0.0376
    112  N         -3.8350    0.0730   68.5830 N.am  314  GLY314     -0.1942
    113  CA        -3.6860    0.2950   70.0090 C.3   314  GLY314      0.2014
    114  C         -2.2180    0.1230   70.3460 C.2   314  GLY314      0.2639
    115  O         -1.5470   -0.7100   69.7090 O.2   314  GLY314     -0.2714
    116  N         -1.7130    0.8830   71.3120 N.am  315  ALA315     -0.1963
    117  CA        -0.3170    0.7920   71.7230 C.3   315  ALA315      0.1728
    118  C         -0.1370    1.2090   73.1860 C.2   315  ALA315      0.2617
    119  O         -1.0300    1.8050   73.7690 O.2   315  ALA315     -0.2715
    120  CB         0.5450    1.7080   70.8300 C.3   315  ALA315      0.0334
    121  N          0.9730    0.8270   73.7980 N.am  316  THR316     -0.1937
    122  CA         1.2980    1.3110   75.1260 C.3   316  THR316      0.2028
    123  C          2.7630    1.6690   74.9130 C.2   316  THR316      0.2642
    124  O          3.2320    1.6510   73.7690 O.2   316  THR316     -0.2714
    125  CB         1.1720    0.2630   76.2640 C.3   316  THR316      0.1808
    126  OG1        1.9180   -0.9190   75.9350 O.3   316  THR316     -0.2208
    127  CG2       -0.3210   -0.0520   76.5260 C.3   316  THR316      0.0379
    128  N          3.4760    2.0060   75.9740 N.am  317  GLY317     -0.1954
    129  CA         4.8800    2.3240   75.8190 C.3   317  GLY317      0.1869
    130  C          5.6770    1.1410   75.2630 C.2   317  GLY317      0.2309
    131  O          6.6040    1.3200   74.4680 O.2   317  GLY317     -0.2863
    132  N          6.1660   -1.1690   70.4930 N.3   340  ASN340     -0.1240
    133  CA         5.2650   -0.2310   69.8550 C.3   340  ASN340      0.1653
    134  C          5.9700    0.2510   68.5580 C.2   340  ASN340      0.2266
    135  O          6.9590    0.9750   68.6130 O.2   340  ASN340     -0.2867
    136  CB         4.9830    0.9230   70.8410 C.3   340  ASN340      0.1155
    137  CG         4.1850    2.0530   70.2330 C.2   340  ASN340      0.2627
    138  OD1        3.7480    2.0060   69.0750 O.2   340  ASN340     -0.2716
    139  ND2        3.9810    3.0870   71.0240 N.am  340  ASN340     -0.0877
    140  N          2.0630    2.6380   63.3460 N.3   343  ASN343     -0.1240
    141  CA         0.7340    2.1690   62.9990 C.3   343  ASN343      0.1653
    142  C          0.5860    1.7830   61.5500 C.2   343  ASN343      0.2266
    143  O         -0.0020    0.7430   61.2390 O.2   343  ASN343     -0.2867
    144  CB        -0.3660    3.2350   63.2620 C.3   343  ASN343      0.1155
    145  CG        -0.7210    3.3980   64.7300 C.2   343  ASN343      0.2627
    146  OD1       -0.6470    2.4560   65.5320 O.2   343  ASN343     -0.2716
    147  ND2       -1.1490    4.5990   65.0800 N.am  343  ASN343     -0.0877
@<TRIPOS>BOND
     1   143   142    2
     2   142   141    1
     3   141   144    1
     4   141   140    1
     5    89    90    1
     6   144   145    1
     7    91    90    1
     8    91    92    2
     9   111   109    1
    10    90    93    1
    11   145   147   am
    12   145   146    2
    13    97    98    1
    14    93    94    1
    15   109   110    1
    16   109   106    1
    17   105   106    1
    18    95    94    2
    19    99    98    1
    20    99   100    2
    21    94    96   am
    22    98   101    1
    23   106   107    1
    24   101   102    1
    25   102   104    1
    26   102   103    1
    27   107   108    2
    28   107   112   am
    29   134   135    2
    30   134   133    1
    31   112   113    1
    32    37    38    1
    33    37    34    1
    34    33    34    1
    35    40    38   ar
    36    40    42   ar
    37   138   137    2
    38    38    39   ar
    39    42    43   ar
    40    34    35    1
    41   115   114    2
    42   133   132    1
    43   133   136    1
    44   113   114    1
    45    39    41   ar
    46    43    44    1
    47    43    41   ar
    48   137   136    1
    49   137   139   am
    50   114   116   am
    51   120   117    1
    52    35    36    2
    53   116   117    1
    54     5     6    1
    55     5     2    1
    56   117   118    1
    57     4     3    2
    58     3     2    1
    59    22    21    1
    60    23    21    1
    61     2     1    1
    62    13    14    1
    63    13    12    1
    64    11    12    1
    65    11     8    1
    66     9    10    2
    67     9     8    1
    68    21    20    1
    69   118   119    2
    70   118   121   am
    71    20    17    1
    72    14    15    1
    73     8     7    1
    74   124   123    2
    75   121   122    1
    76    17    16    1
    77    17    18    1
    78   131   130    2
    79    54    55    1
    80    54    53    1
    81    54    57    1
    82    55    56    2
    83   123   122    1
    84   123   128   am
    85   122   125    1
    86    45    46    1
    87    58    57    1
    88    58    59    1
    89   130   129    1
    90    51    50    2
    91    62    61    1
    92    18    19    2
    93    18    24   am
    94    60    61    2
    95    60    59    1
    96    32    30   am
    97    61    63    1
    98   129   128    1
    99   126   125    1
   100    50    52   am
   101    50    49    1
   102   125   127    1
   103    46    49    1
   104    46    47    1
   105    24    25    1
   106    30    29    1
   107    30    31    2
   108    29    28    1
   109    81    78    1
   110    81    82    1
   111    47    48    2
   112    78    77    1
   113    78    79    1
   114    25    28    1
   115    25    26    1
   116    80    79    2
   117    82    84   ar
   118    82    83   ar
   119    84    86   ar
   120    27    26    2
   121    83    85   ar
   122    86    87   ar
   123    85    87   ar
   124    70    68    1
   125    87    88    1
   126    68    65    1
   127    68    69    1
   128    64    65    1
   129    65    66    1
   130    66    71   am
   131    66    67    2
   132    71    72    1
   133    76    75    1
   134    74    73    2
   135    72    73    1
   136    72    75    1
