@<TRIPOS>MOLECULE
tmp/1xgyC00.pdb
 108 106 0 0 0
SMALL
GASTEIGER

@<TRIPOS>ATOM
      1  N         50.3150   28.1640   19.4640 N.3    31  HIS31      -0.1241
      2  CA        50.6220   28.9840   20.6200 C.3    31  HIS31       0.1621
      3  C         52.0720   28.7960   21.0510 C.2    31  HIS31       0.2264
      4  O         52.6770   27.7610   20.7750 O.2    31  HIS31      -0.2867
      5  CB        49.6660   28.6010   21.7410 C.3    31  HIS31       0.0745
      6  CG        49.7190   29.5040   22.9200 C.ar   31  HIS31       0.0817
      7  ND1       50.7920   29.5270   23.7900 N.ar   31  HIS31      -0.2268
      8  CD2       48.8300   30.4000   23.4050 C.ar   31  HIS31       0.1154
      9  CE1       50.5540   30.3900   24.7540 C.ar   31  HIS31       0.1986
     10  NE2       49.3670   30.9360   24.5460 N.ar   31  HIS31      -0.2212
     11  N         53.4500   27.7560   23.4030 N.3    33  ASN33      -0.1240
     12  CA        53.6890   26.4550   24.0040 C.3    33  ASN33       0.1653
     13  C         53.6910   25.2680   23.0300 C.2    33  ASN33       0.2266
     14  O         53.8290   24.1130   23.4580 O.2    33  ASN33      -0.2867
     15  CB        52.6550   26.2080   25.1030 C.3    33  ASN33       0.1155
     16  CG        51.2310   26.3700   24.6120 C.2    33  ASN33       0.2627
     17  OD1       50.9030   26.0430   23.4620 O.2    33  ASN33      -0.2716
     18  ND2       50.3680   26.8570   25.4890 N.am   33  ASN33      -0.0877
     19  N         45.5750   25.3150   19.2160 N.3    37  TYR37      -0.1241
     20  CA        44.2840   25.2930   19.8750 C.3    37  TYR37       0.1605
     21  C         43.0070   25.2190   19.0350 C.2    37  TYR37       0.2264
     22  O         42.1540   26.0950   19.1070 O.2    37  TYR37      -0.2867
     23  CB        44.2040   26.4680   20.8420 C.3    37  TYR37       0.0534
     24  CG        45.0580   26.2800   22.0870 C.ar   37  TYR37      -0.0201
     25  CD1       46.3760   26.7520   22.1480 C.ar   37  TYR37      -0.0009
     26  CD2       44.5360   25.6330   23.2150 C.ar   37  TYR37      -0.0009
     27  CE1       47.1360   26.5860   23.2980 C.ar   37  TYR37       0.0417
     28  CE2       45.2940   25.4660   24.3640 C.ar   37  TYR37       0.0417
     29  CZ        46.5810   25.9430   24.3950 C.ar   37  TYR37       0.1957
     30  OH        47.3030   25.7650   25.5400 O.3    37  TYR37      -0.2866
     31  N         39.6760   22.7970   18.1930 N.3    39  TYR39      -0.1241
     32  CA        38.9130   21.7630   18.8920 C.3    39  TYR39       0.1605
     33  C         37.8030   21.2170   17.9980 C.2    39  TYR39       0.2264
     34  O         37.4520   21.8390   17.0010 O.2    39  TYR39      -0.2867
     35  CB        38.3340   22.3500   20.1990 C.3    39  TYR39       0.0534
     36  CG        39.3910   22.5860   21.2750 C.ar   39  TYR39      -0.0201
     37  CD1       40.4500   23.4630   21.0650 C.ar   39  TYR39      -0.0009
     38  CD2       39.3760   21.8460   22.4590 C.ar   39  TYR39      -0.0009
     39  CE1       41.4830   23.5930   21.9950 C.ar   39  TYR39       0.0417
     40  CE2       40.3960   21.9680   23.3990 C.ar   39  TYR39       0.0417
     41  CZ        41.4550   22.8390   23.1660 C.ar   39  TYR39       0.1957
     42  OH        42.4790   22.9450   24.0980 O.3    39  TYR39      -0.2866
     43  N         40.6730   17.7070   20.8260 N.3    54  TYR54      -0.1227
     44  CA        41.1660   18.9220   21.4530 C.3    54  TYR54       0.1736
     45  C         42.6300   19.1260   21.0740 C.2    54  TYR54       0.2595
     46  O         43.3700   18.1620   20.8240 O.2    54  TYR54      -0.2718
     47  CB        41.0090   18.8530   22.9810 C.3    54  TYR54       0.0548
     48  CG        41.8380   17.7950   23.6780 C.ar   54  TYR54      -0.0200
     49  CD1       43.1650   18.0380   24.0270 C.ar   54  TYR54      -0.0009
     50  CD2       41.3000   16.5480   23.9750 C.ar   54  TYR54      -0.0009
     51  CE1       43.9410   17.0530   24.6610 C.ar   54  TYR54       0.0417
     52  CE2       42.0510   15.5710   24.6000 C.ar   54  TYR54       0.0417
     53  CZ        43.3690   15.8260   24.9400 C.ar   54  TYR54       0.1957
     54  OH        44.1090   14.8500   25.5430 O.3    54  TYR54      -0.2866
     55  N         43.0410   20.3880   21.0140 N.am   55  ARG55      -0.1980
     56  CA        44.4000   20.7200   20.6390 C.3    55  ARG55       0.1597
     57  C         44.7530   20.1280   19.2870 C.2    55  ARG55       0.2287
     58  O         45.8310   19.5820   19.1150 O.2    55  ARG55      -0.2864
     59  CB        45.3740   20.2160   21.6980 C.3    55  ARG55       0.0334
     60  CG        45.0870   20.7670   23.0880 C.3    55  ARG55       0.0492
     61  CD        46.2240   20.4810   24.0490 C.3    55  ARG55       0.2205
     62  NE        45.8680   20.8150   25.4220 N.pl3  55  ARG55      -0.0865
     63  CZ        46.6420   20.5390   26.4630 C.cat  55  ARG55       0.5346
     64  NH1       47.8030   19.9280   26.2590 N.pl3  55  ARG55       0.1354
     65  NH2       46.2630   20.8680   27.6980 N.pl3  55  ARG55       0.1354
     66  N         40.2210   27.9060   20.2030 N.3    96  MET96      -0.1230
     67  CA        40.3090   28.3060   21.5930 C.3    96  MET96       0.1702
     68  C         41.6400   29.0120   21.7920 C.2    96  MET96       0.2592
     69  O         42.1980   29.0140   22.8940 O.2    96  MET96      -0.2718
     70  CB        40.2560   27.0830   22.5110 C.3    96  MET96       0.0401
     71  CG        39.1030   26.1350   22.2560 C.3    96  MET96       0.0596
     72  SD        37.5060   26.9580   22.0840 S.3    96  MET96      -0.1393
     73  CE        37.3700   27.7660   23.5740 C.3    96  MET96       0.0692
     74  N         42.1640   29.6080   20.7300 N.am   97  LEU97      -0.1966
     75  CA        43.4490   30.2690   20.8430 C.3    97  LEU97       0.1728
     76  C         43.3690   31.5930   21.5640 C.2    97  LEU97       0.2616
     77  O         44.0110   31.7790   22.5810 O.2    97  LEU97      -0.2715
     78  CB        44.0590   30.4910   19.4700 C.3    97  LEU97       0.0311
     79  CG        45.3560   31.2980   19.4980 C.3    97  LEU97       0.0022
     80  CD1       46.3810   30.5860   20.3540 C.3    97  LEU97       0.0001
     81  CD2       45.8670   31.4870   18.0820 C.3    97  LEU97       0.0001
     82  N         42.5770   32.5160   21.0420 N.am   98  GLU98      -0.1963
     83  CA        42.4670   33.8260   21.6530 C.3    98  GLU98       0.1733
     84  C         41.0220   34.2760   21.7550 C.2    98  GLU98       0.2616
     85  O         40.1710   33.8170   20.9930 O.2    98  GLU98      -0.2715
     86  CB        43.2630   34.8240   20.8160 C.3    98  GLU98       0.0429
     87  CG        42.9870   34.6790   19.3220 C.3    98  GLU98       0.1163
     88  CD        43.7000   35.7260   18.4850 C.2    98  GLU98       0.3649
     89  OE1       44.9390   35.8470   18.6130 O.co2  98  GLU98      -0.2457
     90  OE2       43.0240   36.4290   17.6950 O.co2  98  GLU98      -0.2457
     91  N         40.7510   35.1780   22.6950 N.am   99  HIS99      -0.1973
     92  CA        39.4000   35.7020   22.8840 C.3    99  HIS99       0.1656
     93  C         39.0660   36.6310   21.7170 C.2    99  HIS99       0.2291
     94  O         39.9210   37.3900   21.2590 O.2    99  HIS99      -0.2864
     95  CB        39.2960   36.4750   24.2060 C.3    99  HIS99       0.0771
     96  CG        39.4920   35.6240   25.4300 C.ar   99  HIS99       0.0820
     97  ND1       38.6900   34.5490   25.7200 N.ar   99  HIS99      -0.2267
     98  CD2       40.3930   35.7150   26.4400 C.ar   99  HIS99       0.1154
     99  CE1       39.0850   34.0040   26.8680 C.ar   99  HIS99       0.1986
    100  NE2       40.1130   34.6920   27.3190 N.ar   99  HIS99      -0.2212
    101  N         36.3310   33.3460   21.8730 N.3   101  LEU101     -0.1245
    102  CA        36.3520   31.9660   21.4130 C.3   101  LEU101      0.1561
    103  C         35.3270   31.9300   20.2720 C.2   101  LEU101      0.2260
    104  O         34.2430   32.5080   20.3810 O.2   101  LEU101     -0.2867
    105  CB        35.9500   31.0290   22.5590 C.3   101  LEU101      0.0270
    106  CG        36.7430   31.2460   23.8640 C.3   101  LEU101      0.0019
    107  CD1       36.2680   30.3000   24.9570 C.3   101  LEU101      0.0001
    108  CD2       38.2230   31.0400   23.5960 C.3   101  LEU101      0.0001
@<TRIPOS>BOND
     1    34    33    2
     2    90    88   ar
     3    33    32    1
     4    81    79    1
     5    31    32    1
     6    88    89   ar
     7    88    87    1
     8    32    35    1
     9    21    22    2
    10    21    20    1
    11    58    57    2
    12    19    20    1
    13    57    56    1
    14    87    86    1
    15     1     2    1
    16    78    79    1
    17    78    75    1
    18    79    80    1
    19    20    23    1
    20    35    36    1
    21    66    67    1
    22   103   104    2
    23   103   102    1
    24     2     3    1
    25     2     5    1
    26    56    55    1
    27    56    59    1
    28    74    75    1
    29    74    68   am
    30     4     3    2
    31    86    83    1
    32    46    45    2
    33    43    44    1
    34    23    24    1
    35    75    76    1
    36    85    84    2
    37    55    45   am
    38    82    76   am
    39    82    83    1
    40    37    36   ar
    41    37    39   ar
    42    45    44    1
    43    94    93    2
    44    36    38   ar
    45   102   101    1
    46   102   105    1
    47    44    47    1
    48    76    77    2
    49    67    68    1
    50    67    70    1
    51    83    84    1
    52    59    60    1
    53    93    92    1
    54     5     6    1
    55    84    91   am
    56    68    69    2
    57    39    41   ar
    58    72    71    1
    59    72    73    1
    60    24    25   ar
    61    24    26   ar
    62    25    27   ar
    63    71    70    1
    64    38    40   ar
    65   105   106    1
    66    91    92    1
    67    92    95    1
    68     6     8   ar
    69     6     7   ar
    70    47    48    1
    71    13    14    2
    72    13    12    1
    73    60    61    1
    74    41    40   ar
    75    41    42    1
    76    26    28   ar
    77    27    29   ar
    78    11    12    1
    79     8    10   ar
    80    17    16    2
    81   108   106    1
    82    48    50   ar
    83    48    49   ar
    84     7     9   ar
    85   106   107    1
    86    50    52   ar
    87    12    15    1
    88    49    51   ar
    89    61    62    1
    90    95    96    1
    91    28    29   ar
    92    29    30    1
    93    10     9   ar
    94    52    53   ar
    95    16    15    1
    96    16    18   am
    97    51    53   ar
    98    53    54    1
    99    62    63    2
   100    96    97   ar
   101    96    98   ar
   102    97    99   ar
   103    64    63    1
   104    98   100   ar
   105    63    65    1
   106    99   100   ar
