@<TRIPOS>MOLECULE
tmp/1xgyB00.pdb
 99 101 0 0 0
SMALL
GASTEIGER

@<TRIPOS>ATOM
      1  N         69.1130    1.9220   14.7050 N.3    32  TYR32      -0.1227
      2  CA        69.8700    2.5680   15.7550 C.3    32  TYR32       0.1736
      3  C         69.1160    2.8410   17.0370 C.2    32  TYR32       0.2595
      4  O         68.0190    3.3650   17.0130 O.2    32  TYR32      -0.2718
      5  CB        70.5120    3.8550   15.2240 C.3    32  TYR32       0.0548
      6  CG        71.3190    3.6810   13.9590 C.ar   32  TYR32      -0.0200
      7  CD1       70.7110    3.7640   12.7180 C.ar   32  TYR32      -0.0009
      8  CD2       72.6820    3.4210   14.0030 C.ar   32  TYR32      -0.0009
      9  CE1       71.4420    3.5930   11.5340 C.ar   32  TYR32       0.0417
     10  CE2       73.4190    3.2490   12.8440 C.ar   32  TYR32       0.0417
     11  CZ        72.8020    3.3340   11.6140 C.ar   32  TYR32       0.1957
     12  OH        73.5440    3.1580   10.4760 O.3    32  TYR32      -0.2866
     13  N         69.7310    2.4770   18.1540 N.am   33  TYR33      -0.1976
     14  CA        69.1300    2.6750   19.4550 C.3    33  TYR33       0.1639
     15  C         68.7750    4.1460   19.6760 C.2    33  TYR33       0.2290
     16  O         69.4250    5.0440   19.1270 O.2    33  TYR33      -0.2864
     17  CB        70.0950    2.2580   20.5400 C.3    33  TYR33       0.0560
     18  CG        70.5450    0.8090   20.4920 C.ar   33  TYR33      -0.0198
     19  CD1       71.2740    0.3380   19.4130 C.ar   33  TYR33      -0.0009
     20  CD2       70.2420   -0.0900   21.5210 C.ar   33  TYR33      -0.0009
     21  CE1       71.6970   -0.9830   19.3480 C.ar   33  TYR33       0.0417
     22  CE2       70.6480   -1.3830   21.4600 C.ar   33  TYR33       0.0417
     23  CZ        71.3780   -1.8280   20.3810 C.ar   33  TYR33       0.1957
     24  OH        71.8320   -3.1230   20.3650 O.3    33  TYR33      -0.2866
     25  N         68.0660    6.5790   22.9290 N.3    35  ASN35      -0.1240
     26  CA        68.1310    6.7020   24.3890 C.3    35  ASN35       0.1653
     27  C         67.2410    7.8140   24.9420 C.2    35  ASN35       0.2266
     28  O         67.0220    8.8210   24.2810 O.2    35  ASN35      -0.2867
     29  CB        69.5720    6.9960   24.8230 C.3    35  ASN35       0.1155
     30  CG        70.4930    5.8090   24.6700 C.2    35  ASN35       0.2627
     31  OD1       70.6610    5.0180   25.5950 O.2    35  ASN35      -0.2716
     32  ND2       71.1050    5.6830   23.5010 N.am   35  ASN35      -0.0877
     33  N         69.7840    8.7480   32.9270 N.3    47  TRP47      -0.1241
     34  CA        69.4180    7.8520   31.8290 C.3    47  TRP47       0.1605
     35  C         68.1770    6.9870   32.0860 C.2    47  TRP47       0.2264
     36  O         68.1780    6.1560   32.9950 O.2    47  TRP47      -0.2867
     37  CB        70.6060    6.9590   31.5110 C.3    47  TRP47       0.0550
     38  CG        70.3490    5.9900   30.4270 C.ar   47  TRP47       0.0003
     39  CD1       70.3430    6.2320   29.0820 C.ar   47  TRP47       0.0946
     40  CD2       70.0260    4.6160   30.5900 C.ar   47  TRP47       0.0152
     41  NE1       70.0430    5.0810   28.4050 N.ar   47  TRP47      -0.2442
     42  CE2       69.8580    4.0500   29.3190 C.ar   47  TRP47       0.0810
     43  CE3       69.8940    3.7680   31.7090 C.ar   47  TRP47       0.0012
     44  CZ2       69.5300    2.7190   29.0970 C.ar   47  TRP47       0.0191
     45  CZ3       69.5670    2.4310   31.5070 C.ar   47  TRP47       0.0001
     46  CH2       69.4060    1.9150   30.2040 C.ar   47  TRP47       0.0015
     47  N         66.6870    2.7130   26.7600 N.3    50  TRP50      -0.1241
     48  CA        66.7400    2.8170   25.3030 C.3    50  TRP50       0.1605
     49  C         65.8190    1.7960   24.6630 C.2    50  TRP50       0.2264
     50  O         65.3490    0.8710   25.3240 O.2    50  TRP50      -0.2867
     51  CB        68.1750    2.6620   24.7510 C.3    50  TRP50       0.0550
     52  CG        68.9490    1.4220   25.1560 C.ar   50  TRP50       0.0003
     53  CD1       70.1080    1.3900   25.8760 C.ar   50  TRP50       0.0946
     54  CD2       68.6280    0.0510   24.8580 C.ar   50  TRP50       0.0152
     55  NE1       70.5240    0.0950   26.0530 N.ar   50  TRP50      -0.2442
     56  CE2       69.6330   -0.7490   25.4470 C.ar   50  TRP50       0.0810
     57  CE3       67.5870   -0.5770   24.1660 C.ar   50  TRP50       0.0012
     58  CZ2       69.6320   -2.1510   25.3540 C.ar   50  TRP50       0.0191
     59  CZ3       67.5870   -1.9670   24.0740 C.ar   50  TRP50       0.0001
     60  CH2       68.6010   -2.7390   24.6740 C.ar   50  TRP50       0.0015
     61  N         72.1120    6.7330   19.1070 N.3    99  THR99      -0.1203
     62  CA        73.5240    6.4240   18.9960 C.3    99  THR99       0.1994
     63  C         73.7430    5.9920   17.5610 C.2    99  THR99       0.2618
     64  O         73.5050    4.8360   17.2270 O.2    99  THR99      -0.2717
     65  CB        73.9430    5.2620   19.9080 C.3    99  THR99       0.1784
     66  OG1       73.8710    5.6610   21.2800 O.3    99  THR99      -0.2211
     67  CG2       75.3620    4.8410   19.5890 C.3    99  THR99       0.0376
     68  N         74.1770    6.9170   16.7070 N.am  100  VAL100     -0.1965
     69  CA        74.4160    6.5870   15.3040 C.3   100  VAL100      0.1727
     70  C         75.8130    6.0080   15.1100 C.2   100  VAL100      0.2617
     71  O         75.9590    4.9160   14.5770 O.2   100  VAL100     -0.2715
     72  CB        74.2690    7.8090   14.3780 C.3   100  VAL100      0.0290
     73  CG1       74.3310    7.3540   12.9390 C.3   100  VAL100      0.0023
     74  CG2       72.9660    8.5150   14.6420 C.3   100  VAL100      0.0023
     75  N         76.8400    6.7420   15.5280 N.am  101  SER101     -0.1936
     76  CA        78.2130    6.2590   15.4070 C.3   101  SER101      0.2055
     77  C         78.7600    5.9650   16.7970 C.2   101  SER101      0.2643
     78  O         79.3680    4.9180   17.0350 O.2   101  SER101     -0.2714
     79  CB        79.1050    7.2950   14.7200 C.3   101  SER101      0.2130
     80  OG        78.8580    7.3520   13.3290 O.3   101  SER101     -0.2179
     81  N         78.5320    6.8990   17.7130 N.am  102  TYR102     -0.1959
     82  CA        78.9870    6.7570   19.0870 C.3   102  TYR102      0.1771
     83  C         77.8780    7.1900   20.0450 C.2   102  TYR102      0.2619
     84  O         77.0940    8.0950   19.7460 O.2   102  TYR102     -0.2715
     85  CB        80.2560    7.5740   19.2690 C.3   102  TYR102      0.0574
     86  CG        81.2660    7.2210   18.2140 C.ar  102  TYR102     -0.0198
     87  CD1       81.4280    8.0080   17.0690 C.ar  102  TYR102     -0.0009
     88  CD2       82.0160    6.0550   18.3240 C.ar  102  TYR102     -0.0009
     89  CE1       82.3170    7.6380   16.0570 C.ar  102  TYR102      0.0417
     90  CE2       82.9050    5.6710   17.3250 C.ar  102  TYR102      0.0417
     91  CZ        83.0530    6.4630   16.1950 C.ar  102  TYR102      0.1957
     92  OH        83.9460    6.0590   15.2260 O.3   102  TYR102     -0.2866
     93  N         77.8200    6.5330   21.1970 N.am  103  VAL103     -0.1977
     94  CA        76.7710    6.7860   22.1800 C.3   103  VAL103      0.1596
     95  C         76.1730    8.1880   22.2600 C.2   103  VAL103      0.2287
     96  O         76.8500    9.1650   22.5990 O.2   103  VAL103     -0.2864
     97  CB        77.2180    6.3820   23.5940 C.3   103  VAL103      0.0276
     98  CG1       76.0330    6.4520   24.5300 C.3   103  VAL103      0.0022
     99  CG2       77.7890    4.9760   23.5800 C.3   103  VAL103      0.0022
@<TRIPOS>BOND
     1    12    11    1
     2     9    11   ar
     3     9     7   ar
     4    11    10   ar
     5     7     6   ar
     6    10     8   ar
     7    73    72    1
     8    80    79    1
     9     6     8   ar
    10     6     5    1
    11    72    74    1
    12    72    69    1
    13    71    70    2
    14     1     2    1
    15    79    76    1
    16    70    69    1
    17    70    75   am
    18     5     2    1
    19    92    91    1
    20    69    68    1
    21    76    75    1
    22    76    77    1
    23     2     3    1
    24    89    91   ar
    25    89    87   ar
    26    91    90   ar
    27    68    63   am
    28    77    78    2
    29    77    81   am
    30     4     3    2
    31     3    13   am
    32    87    86   ar
    33    64    63    2
    34    90    88   ar
    35    63    62    1
    36    81    82    1
    37    13    14    1
    38    86    88   ar
    39    86    85    1
    40    62    61    1
    41    62    65    1
    42    82    85    1
    43    82    83    1
    44    16    15    2
    45    21    19   ar
    46    21    23   ar
    47    19    18   ar
    48    14    15    1
    49    14    17    1
    50    67    65    1
    51    84    83    2
    52    65    66    1
    53    83    93   am
    54    24    23    1
    55    23    22   ar
    56    18    17    1
    57    18    20   ar
    58    93    94    1
    59    22    20   ar
    60    94    95    1
    61    94    97    1
    62    95    96    2
    63    25    26    1
    64    32    30   am
    65    99    97    1
    66    97    98    1
    67    59    57   ar
    68    59    60   ar
    69    57    54   ar
    70    28    27    2
    71    26    29    1
    72    26    27    1
    73    49    48    1
    74    49    50    2
    75    30    29    1
    76    30    31    2
    77    60    58   ar
    78    51    52    1
    79    51    48    1
    80    54    52   ar
    81    54    56   ar
    82    52    53   ar
    83    48    47    1
    84    58    56   ar
    85    56    55   ar
    86    53    55   ar
    87    41    39   ar
    88    41    42   ar
    89    39    38   ar
    90    44    42   ar
    91    44    46   ar
    92    42    40   ar
    93    46    45   ar
    94    38    40   ar
    95    38    37    1
    96    40    43   ar
    97    45    43   ar
    98    37    34    1
    99    34    35    1
   100    34    33    1
   101    35    36    2
