@<TRIPOS>MOLECULE
tmp/1xh0A00.pdb
 235 229 0 0 0
SMALL
GASTEIGER

@<TRIPOS>ATOM
      1  N         19.4170   23.2900   38.7230 N.3    57  TRP57      -0.1227
      2  CA        19.0160   23.5000   40.1030 C.3    57  TRP57       0.1737
      3  C         18.6770   22.1610   40.7540 C.2    57  TRP57       0.2595
      4  O         18.9570   21.9430   41.9400 O.2    57  TRP57      -0.2718
      5  CB        17.7970   24.4220   40.1860 C.3    57  TRP57       0.0564
      6  CG        16.5880   23.8910   39.4780 C.ar   57  TRP57       0.0003
      7  CD1       16.2590   24.0800   38.1660 C.ar   57  TRP57       0.0946
      8  CD2       15.5520   23.0720   40.0370 C.ar   57  TRP57       0.0152
      9  NE1       15.0840   23.4310   37.8730 N.ar   57  TRP57      -0.2442
     10  CE2       14.6260   22.8040   39.0020 C.ar   57  TRP57       0.0810
     11  CE3       15.3140   22.5380   41.3130 C.ar   57  TRP57       0.0012
     12  CZ2       13.4750   22.0250   39.2030 C.ar   57  TRP57       0.0191
     13  CZ3       14.1690   21.7620   41.5140 C.ar   57  TRP57       0.0001
     14  CH2       13.2650   21.5150   40.4610 C.ar   57  TRP57       0.0015
     15  N         18.0930   21.2530   39.9720 N.am   58  TRP58      -0.1976
     16  CA        17.6920   19.9700   40.5250 C.3    58  TRP58       0.1640
     17  C         18.7850   18.9570   40.8560 C.2    58  TRP58       0.2290
     18  O         18.4790   17.8850   41.3820 O.2    58  TRP58      -0.2864
     19  CB        16.6090   19.3160   39.6560 C.3    58  TRP58       0.0576
     20  CG        16.8340   19.3190   38.1650 C.ar   58  TRP58       0.0006
     21  CD1       16.2030   20.1140   37.2390 C.ar   58  TRP58       0.0946
     22  CD2       17.6630   18.4200   37.4190 C.ar   58  TRP58       0.0152
     23  NE1       16.5810   19.7540   35.9650 N.ar   58  TRP58      -0.2442
     24  CE2       17.4750   18.7180   36.0460 C.ar   58  TRP58       0.0810
     25  CE3       18.5420   17.3880   37.7740 C.ar   58  TRP58       0.0012
     26  CZ2       18.1370   18.0180   35.0300 C.ar   58  TRP58       0.0191
     27  CZ3       19.2020   16.6910   36.7600 C.ar   58  TRP58       0.0001
     28  CH2       18.9930   17.0110   35.4050 C.ar   58  TRP58       0.0015
     29  N         18.9100   17.7700   44.4160 N.3    61  TYR61      -0.1227
     30  CA        17.9310   16.8280   44.9400 C.3    61  TYR61       0.1736
     31  C         18.3770   15.4090   44.6560 C.2    61  TYR61       0.2595
     32  O         17.5750   14.4780   44.6430 O.2    61  TYR61      -0.2718
     33  CB        16.5500   17.1210   44.3550 C.3    61  TYR61       0.0548
     34  CG        16.0060   18.3780   44.9700 C.ar   61  TYR61      -0.0200
     35  CD1       15.4630   18.3600   46.2580 C.ar   61  TYR61      -0.0009
     36  CD2       16.1730   19.6110   44.3410 C.ar   61  TYR61      -0.0009
     37  CE1       15.1100   19.5410   46.9060 C.ar   61  TYR61       0.0417
     38  CE2       15.8270   20.7960   44.9840 C.ar   61  TYR61       0.0417
     39  CZ        15.3000   20.7520   46.2650 C.ar   61  TYR61       0.1957
     40  OH        14.9930   21.9220   46.9180 O.3    61  TYR61      -0.2866
     41  N         19.6840   15.2650   44.4420 N.am   62  GLN62      -0.1979
     42  CA        20.3060   13.9740   44.1820 C.3    62  GLN62       0.1601
     43  C         21.5040   13.8480   45.1130 C.2    62  GLN62       0.2287
     44  O         22.6380   14.1200   44.7200 O.2    62  GLN62      -0.2864
     45  CB        20.7600   13.8740   42.7250 C.3    62  GLN62       0.0394
     46  CG        19.6120   13.8970   41.7420 C.3    62  GLN62       0.0908
     47  CD        20.0220   13.4280   40.3670 C.2    62  GLN62       0.2608
     48  OE1       20.7240   12.4250   40.2290 O.2    62  GLN62      -0.2717
     49  NE2       19.5740   14.1380   39.3370 N.am   62  GLN62      -0.0878
     50  N         15.5100    9.6890   49.0570 N.3   100  HIS100     -0.1241
     51  CA        16.3520    8.9810   48.1070 C.3   100  HIS100      0.1621
     52  C         17.7670    9.5350   48.0280 C.2   100  HIS100      0.2264
     53  O         18.1300   10.4810   48.7330 O.2   100  HIS100     -0.2867
     54  CB        15.7180    9.1470   46.7350 C.3   100  HIS100      0.0745
     55  CG        15.3980   10.5750   46.4220 C.ar  100  HIS100      0.0817
     56  ND1       14.2460   11.1890   46.8630 N.ar  100  HIS100     -0.2268
     57  CD2       16.1400   11.5480   45.8380 C.ar  100  HIS100      0.1154
     58  CE1       14.2930   12.4760   46.5700 C.ar  100  HIS100      0.1986
     59  NE2       15.4330   12.7210   45.9490 N.ar  100  HIS100     -0.2212
     60  N         20.1920    9.7070   40.9840 N.3   103  GLY103     -0.1225
     61  CA        19.6030    8.8900   39.9350 C.3   103  GLY103      0.1811
     62  C         20.3400    7.5770   39.7690 C.2   103  GLY103      0.2280
     63  O         21.5650    7.5320   39.8590 O.2   103  GLY103     -0.2866
     64  N         23.1240    7.6450   37.0830 N.3   106  VAL106     -0.1245
     65  CA        24.2940    8.5080   37.2020 C.3   106  VAL106      0.1561
     66  C         25.6000    7.7060   37.2150 C.2   106  VAL106      0.2260
     67  O         25.7120    6.6820   37.8890 O.2   106  VAL106     -0.2867
     68  CB        24.2110    9.3800   38.4810 C.3   106  VAL106      0.0252
     69  CG1       25.4810   10.2030   38.6440 C.3   106  VAL106      0.0019
     70  CG2       23.0140   10.3010   38.3970 C.3   106  VAL106      0.0019
     71  N          0.2820    6.7450   40.0320 N.3   150  TYR150     -0.1241
     72  CA         0.0040    7.3600   41.3270 C.3   150  TYR150      0.1605
     73  C         -1.3020    6.8950   41.9620 C.2   150  TYR150      0.2264
     74  O         -1.6460    7.3260   43.0660 O.2   150  TYR150     -0.2867
     75  CB         0.0110    8.8840   41.2160 C.3   150  TYR150      0.0534
     76  CG         1.4060    9.4570   41.1680 C.ar  150  TYR150     -0.0201
     77  CD1        2.1930    9.3420   40.0210 C.ar  150  TYR150     -0.0009
     78  CD2        1.9630   10.0740   42.2880 C.ar  150  TYR150     -0.0009
     79  CE1        3.5060    9.8290   39.9960 C.ar  150  TYR150      0.0417
     80  CE2        3.2680   10.5600   42.2720 C.ar  150  TYR150      0.0417
     81  CZ         4.0310   10.4330   41.1250 C.ar  150  TYR150      0.1957
     82  OH         5.3220   10.8960   41.1200 O.3   150  TYR150     -0.2866
     83  N         11.2040    7.5670   42.3760 N.3   161  LEU161     -0.1231
     84  CA        10.6020    8.7710   41.8440 C.3   161  LEU161      0.1693
     85  C         11.5430    9.1750   40.7170 C.2   161  LEU161      0.2593
     86  O         12.7090    9.4920   40.9630 O.2   161  LEU161     -0.2718
     87  CB        10.5580    9.8660   42.9090 C.3   161  LEU161      0.0284
     88  CG        10.1290   11.2680   42.4520 C.3   161  LEU161      0.0019
     89  CD1        8.7290   11.2260   41.8330 C.3   161  LEU161      0.0001
     90  CD2       10.1590   12.2070   43.6510 C.3   161  LEU161      0.0001
     91  N         11.0430    9.1250   39.4870 N.am  162  THR162     -0.1939
     92  CA        11.8190    9.4820   38.3100 C.3   162  THR162      0.2028
     93  C         13.2770    8.9930   38.3660 C.2   162  THR162      0.2643
     94  O         14.2200    9.7480   38.1220 O.2   162  THR162     -0.2714
     95  CB        11.7600   11.0270   38.0690 C.3   162  THR162      0.1808
     96  OG1       12.3610   11.3420   36.8070 O.3   162  THR162     -0.2208
     97  CG2       12.4780   11.7850   39.1730 C.3   162  THR162      0.0379
     98  N         13.4520    7.7190   38.7060 N.am  163  GLY163     -0.1939
     99  CA        14.7820    7.1350   38.7500 C.3   163  GLY163      0.2014
    100  C         15.6390    7.3140   39.9910 C.2   163  GLY163      0.2638
    101  O         16.6780    6.6630   40.1060 O.2   163  GLY163     -0.2714
    102  N         15.2340    8.1820   40.9140 N.am  164  LEU164     -0.1977
    103  CA        16.0170    8.4030   42.1300 C.3   164  LEU164      0.1596
    104  C         16.0610    7.1670   43.0410 C.2   164  LEU164      0.2287
    105  O         15.0150    6.6550   43.4500 O.2   164  LEU164     -0.2864
    106  CB        15.4610    9.5920   42.9250 C.3   164  LEU164      0.0297
    107  CG        15.7570   11.0510   42.5440 C.3   164  LEU164      0.0022
    108  CD1       16.9790   11.1430   41.6430 C.3   164  LEU164      0.0001
    109  CD2       14.5490   11.6510   41.8860 C.3   164  LEU164      0.0001
    110  N         12.0560   20.8650   56.0970 N.3   194  ARG194     -0.1245
    111  CA        11.1050   20.7170   55.0070 C.3   194  ARG194      0.1563
    112  C         11.4120   19.2830   54.5820 C.2   194  ARG194      0.2260
    113  O         12.5260   18.9950   54.1450 O.2   194  ARG194     -0.2867
    114  CB        11.4260   21.6420   53.8320 C.3   194  ARG194      0.0307
    115  CG        10.6520   21.2710   52.5660 C.3   194  ARG194      0.0489
    116  CD        11.2920   21.8340   51.3100 C.3   194  ARG194      0.2205
    117  NE        10.4980   21.5430   50.1160 N.pl3 194  ARG194     -0.0865
    118  CZ        10.8410   20.6760   49.1660 C.cat 194  ARG194      0.5346
    119  NH1       11.9770   20.0000   49.2510 N.pl3 194  ARG194      0.1354
    120  NH2       10.0370   20.4780   48.1260 N.pl3 194  ARG194      0.1354
    121  N         11.3490   16.8000   52.0190 N.3   196  ASP196     -0.1225
    122  CA        11.1910   16.6760   50.5750 C.3   196  ASP196      0.1805
    123  C         10.5280   15.3530   50.2000 C.2   196  ASP196      0.2597
    124  O         10.7680   14.3250   50.8330 O.2   196  ASP196     -0.2718
    125  CB        12.5680   16.7640   49.9020 C.3   196  ASP196      0.1424
    126  CG        12.4990   16.6070   48.3860 C.2   196  ASP196      0.3668
    127  OD1       11.9600   17.5040   47.7100 O.co2 196  ASP196     -0.2456
    128  OD2       12.9890   15.5830   47.8690 O.co2 196  ASP196     -0.2456
    129  N          9.6960   15.3920   49.1630 N.am  197  ALA197     -0.1979
    130  CA         9.0110   14.2020   48.6620 C.3   197  ALA197      0.1597
    131  C          8.3700   13.3400   49.7540 C.2   197  ALA197      0.2287
    132  O          8.4770   12.1130   49.7160 O.2   197  ALA197     -0.2864
    133  CB         9.9990   13.3540   47.8440 C.3   197  ALA197      0.0319
    134  N          5.3530   12.6030   50.2020 N.3   199  LYS199     -0.1231
    135  CA         4.3060   11.7700   49.6130 C.3   199  LYS199      0.1693
    136  C          4.8860   10.3980   49.2940 C.2   199  LYS199      0.2592
    137  O          4.1890    9.3810   49.3390 O.2   199  LYS199     -0.2718
    138  CB         3.8180   12.4250   48.3250 C.3   199  LYS199      0.0285
    139  CG         2.7800   11.6650   47.5460 C.3   199  LYS199      0.0035
    140  CD         2.4940   12.4350   46.2710 C.3   199  LYS199      0.0206
    141  CE         1.1610   12.0690   45.6850 C.3   199  LYS199      0.1093
    142  NZ         0.7970   13.0350   44.6190 N.3   199  LYS199     -0.1314
    143  N          6.1790   10.3840   48.9870 N.am  200  HIS200     -0.1976
    144  CA         6.8730    9.1630   48.6260 C.3   200  HIS200      0.1656
    145  C          7.3990    8.3640   49.8010 C.2   200  HIS200      0.2291
    146  O          8.0980    7.3770   49.6150 O.2   200  HIS200     -0.2864
    147  CB         7.9840    9.5110   47.6490 C.3   200  HIS200      0.0771
    148  CG         7.4690   10.1450   46.4020 C.ar  200  HIS200      0.0820
    149  ND1        6.7980    9.4280   45.4350 N.ar  200  HIS200     -0.2267
    150  CD2        7.4100   11.4410   46.0190 C.ar  200  HIS200      0.1154
    151  CE1        6.3430   10.2550   44.5120 C.ar  200  HIS200      0.1986
    152  NE2        6.6990   11.4830   44.8430 N.ar  200  HIS200     -0.2212
    153  N          6.3390   18.0280   52.3760 N.3   232  GLU232     -0.1245
    154  CA         5.9960   18.3570   50.9970 C.3   232  GLU232      0.1567
    155  C          5.1560   17.2220   50.4360 C.2   232  GLU232      0.2260
    156  O          5.6840   16.1800   50.0350 O.2   232  GLU232     -0.2867
    157  CB         7.2630   18.5230   50.1460 C.3   232  GLU232      0.0388
    158  CG         7.0310   19.1410   48.7560 C.3   232  GLU232      0.1160
    159  CD         7.3310   18.1830   47.5940 C.2   232  GLU232      0.3649
    160  OE1        8.3780   17.4970   47.6160 O.co2 232  GLU232     -0.2457
    161  OE2        6.5250   18.1280   46.6440 O.co2 232  GLU232     -0.2457
    162  N          2.1150   16.7640   47.6500 N.3   234  ILE234     -0.1245
    163  CA         1.2990   17.3900   46.6230 C.3   234  ILE234      0.1561
    164  C         -0.0130   16.6160   46.5460 C.2   234  ILE234      0.2260
    165  O         -0.0660   15.5160   45.9990 O.2   234  ILE234     -0.2867
    166  CB         2.0190   17.3610   45.2570 C.3   234  ILE234      0.0252
    167  CG1        3.3450   18.1190   45.3720 C.3   234  ILE234      0.0019
    168  CG2        1.1290   17.9620   44.1780 C.3   234  ILE234      0.0019
    169  CD1        4.1630   18.1350   44.1060 C.3   234  ILE234      0.0001
    170  N         -3.7110   17.3400   45.2730 N.3   236  LEU236     -0.1245
    171  CA        -4.6910   18.1820   44.5990 C.3   236  LEU236      0.1561
    172  C         -5.9960   17.4160   44.4650 C.2   236  LEU236      0.2260
    173  O         -6.8900   17.8210   43.7270 O.2   236  LEU236     -0.2867
    174  CB        -4.1850   18.5740   43.2130 C.3   236  LEU236      0.0270
    175  CG        -2.8620   19.3430   43.1710 C.3   236  LEU236      0.0019
    176  CD1       -2.4890   19.6350   41.7190 C.3   236  LEU236      0.0001
    177  CD2       -2.9900   20.6300   43.9650 C.3   236  LEU236      0.0001
    178  N         -6.2490   11.4030   44.0750 N.3   239  GLU239     -0.1245
    179  CA        -5.2640   10.3560   44.2890 C.3   239  GLU239      0.1567
    180  C         -5.5700    9.6140   45.5750 C.2   239  GLU239      0.2260
    181  O         -6.2220   10.1510   46.4650 O.2   239  GLU239     -0.2867
    182  CB        -3.8570   10.9460   44.3430 C.3   239  GLU239      0.0388
    183  CG        -3.2150   11.0750   42.9760 C.3   239  GLU239      0.1160
    184  CD        -1.7970   11.6060   43.0410 C.2   239  GLU239      0.3649
    185  OE1       -1.0750   11.2690   44.0030 O.co2 239  GLU239     -0.2457
    186  OE2       -1.3980   12.3460   42.1190 O.co2 239  GLU239     -0.2457
    187  N          9.7540   26.8120   44.4400 N.3   298  HIS298     -0.1226
    188  CA        10.8470   26.6320   43.4750 C.3   298  HIS298      0.1752
    189  C         10.4870   25.6030   42.4100 C.2   298  HIS298      0.2596
    190  O         10.9270   25.6830   41.2620 O.2   298  HIS298     -0.2718
    191  CB        12.1470   26.2000   44.1820 C.3   298  HIS298      0.0759
    192  CG        12.1320   24.7910   44.6940 C.ar  298  HIS298      0.0818
    193  ND1       11.5330   24.4340   45.8840 N.ar  298  HIS298     -0.2268
    194  CD2       12.6460   23.6510   44.1730 C.ar  298  HIS298      0.1154
    195  CE1       11.6830   23.1350   46.0760 C.ar  298  HIS298      0.1986
    196  NE2       12.3540   22.6370   45.0520 N.ar  298  HIS298     -0.2212
    197  N          9.6740   24.6380   42.8130 N.am  299  ASP299     -0.1974
    198  CA         9.2250   23.5740   41.9410 C.3   299  ASP299      0.1709
    199  C          8.2150   24.0110   40.8890 C.2   299  ASP299      0.2293
    200  O          8.4770   23.8860   39.6900 O.2   299  ASP299     -0.2864
    201  CB         8.6220   22.4610   42.7900 C.3   299  ASP299      0.1436
    202  CG         9.3790   21.1660   42.6540 C.2   299  ASP299      0.3671
    203  OD1       10.5500   21.2130   42.2090 O.co2 299  ASP299     -0.2456
    204  OD2        8.8060   20.1060   42.9990 O.co2 299  ASP299     -0.2456
    205  N          7.1390   25.1390   36.3020 N.3   303  GLY303     -0.1210
    206  CA         6.4140   24.0110   35.7460 C.3   303  GLY303      0.1956
    207  C          6.8460   22.6340   36.2040 C.2   303  GLY303      0.2612
    208  O          6.4570   21.6430   35.5900 O.2   303  GLY303     -0.2717
    209  N          7.6380   22.5590   37.2730 N.am  304  HIS304     -0.1961
    210  CA         8.1020   21.2690   37.7910 C.3   304  HIS304      0.1787
    211  C          7.1950   20.7020   38.8790 C.2   304  HIS304      0.2621
    212  O          7.4640   19.6310   39.4370 O.2   304  HIS304     -0.2715
    213  CB         9.5320   21.3910   38.3250 C.3   304  HIS304      0.0785
    214  CG        10.5790   20.9700   37.3410 C.ar  304  HIS304      0.0821
    215  ND1       11.1950   19.7380   37.3920 N.ar  304  HIS304     -0.2267
    216  CD2       11.0930   21.6030   36.2600 C.ar  304  HIS304      0.1154
    217  CE1       12.0430   19.6300   36.3850 C.ar  304  HIS304      0.1986
    218  NE2       12.0000   20.7470   35.6820 N.ar  304  HIS304     -0.2212
    219  N          6.1160   21.4100   39.1800 N.am  305  GLY305     -0.1940
    220  CA         5.2110   20.9190   40.1990 C.3   305  GLY305      0.2014
    221  C          3.7390   21.1160   39.8910 C.2   305  GLY305      0.2639
    222  O          3.3610   21.7570   38.8990 O.2   305  GLY305     -0.2714
    223  N          2.9040   20.5490   40.7540 N.am  306  ALA306     -0.1963
    224  CA         1.4670   20.6750   40.6060 C.3   306  ALA306      0.1728
    225  C          1.1120   22.1580   40.6610 C.2   306  ALA306      0.2617
    226  O          1.7050   22.9300   41.4220 O.2   306  ALA306     -0.2715
    227  CB         0.7580   19.9220   41.7190 C.3   306  ALA306      0.0334
    228  N          0.1370   22.5440   39.8490 N.am  307  GLY307     -0.1940
    229  CA        -0.2870   23.9270   39.7940 C.3   307  GLY307      0.2014
    230  C         -0.3620   24.3080   38.3320 C.2   307  GLY307      0.2639
    231  O         -1.3080   24.9690   37.8870 O.2   307  GLY307     -0.2714
    232  N          0.6460   23.8790   37.5820 N.am  308  GLY308     -0.1954
    233  CA         0.6750   24.1640   36.1630 C.3   308  GLY308      0.1869
    234  C          0.6260   25.6290   35.7780 C.2   308  GLY308      0.2309
    235  O          1.2460   26.4820   36.4160 O.2   308  GLY308     -0.2863
@<TRIPOS>BOND
     1    26    28   ar
     2    26    24   ar
     3    28    27   ar
     4   208   207    2
     5   218   216   ar
     6   218   217   ar
     7   206   207    1
     8   206   205    1
     9   234   233    1
    10   234   235    2
    11    23    24   ar
    12    23    21   ar
    13    24    22   ar
    14   233   232    1
    15   207   209   am
    16   216   214   ar
    17   217   215   ar
    18    27    25   ar
    19    96    95    1
    20    64    65    1
    21    65    66    1
    22    65    68    1
    23    66    67    2
    24    21    20   ar
    25   209   210    1
    26   214   215   ar
    27   214   213    1
    28    22    25   ar
    29    22    20   ar
    30   232   230   am
    31   210   213    1
    32   210   211    1
    33     9     7   ar
    34     9    10   ar
    35   231   230    2
    36    95    92    1
    37    95    97    1
    38    94    93    2
    39    20    19    1
    40     7     6   ar
    41    92    93    1
    42    92    91    1
    43   230   229    1
    44    93    98   am
    45    70    68    1
    46    68    69    1
    47    98    99    1
    48     1     2    1
    49    99   100    1
    50   211   219   am
    51   211   212    2
    52   222   221    2
    53    10    12   ar
    54    10     8   ar
    55   219   220    1
    56    12    14   ar
    57    49    47   am
    58     6     8   ar
    59     6     5    1
    60    91    85   am
    61    19    16    1
    62   200   199    2
    63    62    63    2
    64    62    61    1
    65   229   228    1
    66   228   225   am
    67   221   220    1
    68   221   223   am
    69    61    60    1
    70    15    16    1
    71    15     3   am
    72   100   101    2
    73   100   102   am
    74    79    77   ar
    75    79    81   ar
    76    77    76   ar
    77    71    72    1
    78     8    11   ar
    79     2     5    1
    80     2     3    1
    81    48    47    2
    82    47    46    1
    83    14    13   ar
    84    16    17    1
    85   224   225    1
    86   224   223    1
    87   224   227    1
    88   225   226    2
    89    85    86    2
    90    85    84    1
    91     3     4    2
    92    17    18    2
    93   199   198    1
    94   102   103    1
    95    82    81    1
    96    81    80   ar
    97    76    75    1
    98    76    78   ar
    99    75    72    1
   100   190   189    2
   101    11    13   ar
   102    72    73    1
   103   108   107    1
   104   176   175    1
   105    46    45    1
   106    89    88    1
   107    84    83    1
   108    84    87    1
   109   109   107    1
   110   198   201    1
   111   198   197    1
   112    73    74    2
   113   186   184   ar
   114   103   106    1
   115   103   104    1
   116   203   202   ar
   117    80    78   ar
   118   189   197   am
   119   189   188    1
   120    88    87    1
   121    88    90    1
   122   107   106    1
   123   202   201    1
   124   202   204   ar
   125    45    42    1
   126   183   184    1
   127   183   182    1
   128   104   105    2
   129   184   185   ar
   130   175   174    1
   131   175   177    1
   132   174   171    1
   133   188   191    1
   134   188   187    1
   135   173   172    2
   136   178   179    1
   137   169   167    1
   138   194   192   ar
   139   194   196   ar
   140   168   166    1
   141    42    41    1
   142    42    43    1
   143   191   192    1
   144   179   182    1
   145   179   180    1
   146    36    34   ar
   147    36    38   ar
   148    33    30    1
   149    33    34    1
   150    29    30    1
   151    41    31   am
   152   172   171    1
   153   151   152   ar
   154   151   149   ar
   155   171   170    1
   156   142   141    1
   157    32    31    2
   158    31    30    1
   159   192   193   ar
   160    44    43    2
   161   152   150   ar
   162    34    35   ar
   163    38    39   ar
   164   196   195   ar
   165   166   167    1
   166   166   163    1
   167   149   148   ar
   168   180   181    2
   169   141   140    1
   170    57    59   ar
   171    57    55   ar
   172   193   195   ar
   173    59    58   ar
   174   165   164    2
   175   150   148   ar
   176    35    37   ar
   177    39    37   ar
   178    39    40    1
   179   140   139    1
   180   148   147    1
   181    55    54    1
   182    55    56   ar
   183   164   163    1
   184    58    56   ar
   185   163   162    1
   186   161   159   ar
   187    54    51    1
   188   139   138    1
   189   159   160   ar
   190   159   158    1
   191   147   144    1
   192   127   126   ar
   193   133   130    1
   194   128   126   ar
   195    52    51    1
   196    52    53    2
   197    51    50    1
   198   120   118    1
   199   138   135    1
   200   126   125    1
   201   144   143    1
   202   144   145    1
   203   130   129    1
   204   130   131    1
   205   158   157    1
   206   143   136   am
   207   129   123   am
   208   118   119    1
   209   118   117    2
   210   136   137    2
   211   136   135    1
   212   135   134    1
   213   146   145    2
   214   132   131    2
   215   125   122    1
   216   156   155    2
   217   117   116    1
   218   157   154    1
   219   123   122    1
   220   123   124    2
   221   155   154    1
   222   122   121    1
   223   154   153    1
   224   116   115    1
   225   115   114    1
   226   114   111    1
   227   113   112    2
   228   112   111    1
   229   111   110    1
