@<TRIPOS>MOLECULE
tmp/1xhlB01.pdb
 141 137 0 0 0
SMALL
GASTEIGER

@<TRIPOS>ATOM
      1  N         35.8800  113.8730    3.1000 N.3    95  ASN95      -0.1240
      2  CA        35.0320  112.7410    2.7720 C.3    95  ASN95       0.1653
      3  C         35.9010  111.5120    3.0230 C.2    95  ASN95       0.2266
      4  O         36.5610  111.0110    2.1130 O.2    95  ASN95      -0.2867
      5  CB        34.6080  112.8020    1.3050 C.3    95  ASN95       0.1155
      6  CG        33.6530  111.6900    0.9280 C.2    95  ASN95       0.2627
      7  OD1       33.3790  110.7900    1.7260 O.2    95  ASN95      -0.2716
      8  ND2       33.1420  111.7410   -0.2970 N.am   95  ASN95      -0.0877
      9  N         28.5100  121.7420    2.4240 N.3   144  SER144     -0.1202
     10  CA        28.6990  121.1910    1.0810 C.3   144  SER144      0.2020
     11  C         27.3720  120.8540    0.4030 C.2   144  SER144      0.2619
     12  O         26.3800  120.5540    1.0660 O.2   144  SER144     -0.2717
     13  CB        29.5560  119.9210    1.1500 C.3   144  SER144      0.2103
     14  OG        29.5910  119.2590   -0.1020 O.3   144  SER144     -0.2182
     15  N         27.3570  120.8950   -0.9240 N.am  145  ILE145     -0.1965
     16  CA        26.1420  120.5650   -1.6620 C.3   145  ILE145      0.1727
     17  C         25.8240  119.0800   -1.4980 C.2   145  ILE145      0.2616
     18  O         24.7240  118.6300   -1.8300 O.2   145  ILE145     -0.2715
     19  CB        26.2790  120.8780   -3.1620 C.3   145  ILE145      0.0290
     20  CG1       27.4230  120.0600   -3.7640 C.3   145  ILE145      0.0022
     21  CG2       26.5000  122.3660   -3.3600 C.3   145  ILE145      0.0023
     22  CD1       27.5370  120.1830   -5.2700 C.3   145  ILE145      0.0001
     23  N         26.7890  118.3240   -0.9800 N.am  146  VAL146     -0.1977
     24  CA        26.6020  116.8940   -0.7640 C.3   146  VAL146      0.1596
     25  C         25.5030  116.6600    0.2870 C.2   146  VAL146      0.2287
     26  O         25.0120  115.5400    0.4590 O.2   146  VAL146     -0.2864
     27  CB        27.9290  116.2150   -0.3110 C.3   146  VAL146      0.0276
     28  CG1       28.3500  116.7220    1.0590 C.3   146  VAL146      0.0022
     29  CG2       27.7520  114.7240   -0.2570 C.3   146  VAL146      0.0022
     30  N         23.4290  111.6390   -2.6510 N.3   152  HIS152     -0.1241
     31  CA        24.8640  111.4020   -2.7890 C.3   152  HIS152      0.1621
     32  C         25.0640  110.0360   -2.1390 C.2   152  HIS152      0.2264
     33  O         25.7580  109.8810   -1.1190 O.2   152  HIS152     -0.2867
     34  CB        25.6450  112.5080   -2.0720 C.3   152  HIS152      0.0745
     35  CG        25.5880  113.8250   -2.7830 C.ar  152  HIS152      0.0817
     36  ND1       26.5260  114.2050   -3.7200 N.ar  152  HIS152     -0.2268
     37  CD2       24.6570  114.8090   -2.7640 C.ar  152  HIS152      0.1154
     38  CE1       26.1730  115.3630   -4.2500 C.ar  152  HIS152      0.1986
     39  NE2       25.0420  115.7510   -3.6880 N.ar  152  HIS152     -0.2212
     40  N         28.4800  107.9500   -0.8460 N.3   155  TYR155     -0.1241
     41  CA        29.1170  108.2400    0.4390 C.3   155  TYR155      0.1605
     42  C         28.0980  108.9180    1.3590 C.2   155  TYR155      0.2264
     43  O         28.2250  110.0970    1.6950 O.2   155  TYR155     -0.2867
     44  CB        30.3120  109.1680    0.2120 C.3   155  TYR155      0.0534
     45  CG        30.0940  110.1650   -0.9080 C.ar  155  TYR155     -0.0201
     46  CD1       30.3620  109.8240   -2.2340 C.ar  155  TYR155     -0.0009
     47  CD2       29.5820  111.4340   -0.6500 C.ar  155  TYR155     -0.0009
     48  CE1       30.1210  110.7230   -3.2730 C.ar  155  TYR155      0.0417
     49  CE2       29.3370  112.3380   -1.6790 C.ar  155  TYR155      0.0417
     50  CZ        29.6060  111.9800   -2.9850 C.ar  155  TYR155      0.1957
     51  OH        29.3460  112.8710   -4.0040 O.3   155  TYR155     -0.2866
     52  N         29.2240  111.0510    4.7860 N.3   158  TYR158     -0.1241
     53  CA        29.7970  112.3650    4.5500 C.3   158  TYR158      0.1605
     54  C         28.6620  113.3200    4.1660 C.2   158  TYR158      0.2264
     55  O         28.5860  114.4500    4.6480 O.2   158  TYR158     -0.2867
     56  CB        30.8310  112.2840    3.4210 C.3   158  TYR158      0.0534
     57  CG        31.3730  113.6320    3.0000 C.ar  158  TYR158     -0.0201
     58  CD1       32.0330  114.4580    3.9160 C.ar  158  TYR158     -0.0009
     59  CD2       31.1930  114.1010    1.6990 C.ar  158  TYR158     -0.0009
     60  CE1       32.4930  115.7170    3.5460 C.ar  158  TYR158      0.0417
     61  CE2       31.6530  115.3570    1.3180 C.ar  158  TYR158      0.0417
     62  CZ        32.2990  116.1590    2.2470 C.ar  158  TYR158      0.1957
     63  OH        32.7440  117.4030    1.8750 O.3   158  TYR158     -0.2866
     64  N         29.9570  124.7480   -0.5590 N.3   188  PRO188     -0.2102
     65  CA        30.6900  124.7080   -1.8240 C.3   188  PRO188      0.1504
     66  C         30.3060  123.5380   -2.7240 C.2   188  PRO188      0.2576
     67  O         29.8060  122.5090   -2.2640 O.2   188  PRO188     -0.2718
     68  CB        32.1520  124.5950   -1.3830 C.3   188  PRO188      0.0282
     69  CG        32.1550  125.0790    0.0460 C.3   188  PRO188      0.0208
     70  CD        30.8650  124.5380    0.5800 C.3   188  PRO188      0.0893
     71  N         30.5330  123.7260   -4.0170 N.am  189  GLY189     -0.1943
     72  CA        30.3100  122.6710   -4.9830 C.3   189  GLY189      0.2014
     73  C         31.7240  122.1300   -5.1350 C.2   189  GLY189      0.2639
     74  O         32.4740  122.1210   -4.1590 O.2   189  GLY189     -0.2714
     75  N         32.1210  121.7130   -6.3310 N.am  190  ALA190     -0.1963
     76  CA        33.4720  121.1970   -6.5200 C.3   190  ALA190      0.1728
     77  C         34.5290  122.3020   -6.4310 C.2   190  ALA190      0.2616
     78  O         34.4010  123.3660   -7.0550 O.2   190  ALA190     -0.2715
     79  CB        33.5740  120.4980   -7.8600 C.3   190  ALA190      0.0334
     80  N         35.5740  122.0480   -5.6500 N.am  191  VAL191     -0.1977
     81  CA        36.6650  123.0060   -5.4920 C.3   191  VAL191      0.1596
     82  C         37.9930  122.2660   -5.6150 C.2   191  VAL191      0.2287
     83  O         38.2310  121.2850   -4.9120 O.2   191  VAL191     -0.2864
     84  CB        36.6200  123.7100   -4.1110 C.3   191  VAL191      0.0276
     85  CG1       37.6650  124.8240   -4.0680 C.3   191  VAL191      0.0022
     86  CG2       35.2250  124.2670   -3.8470 C.3   191  VAL191      0.0022
     87  N         41.3010  118.0500   -1.4350 N.3   195  PHE195     -0.1227
     88  CA        40.1700  117.2040   -1.0700 C.3   195  PHE195      0.1736
     89  C         40.2150  115.7960   -1.6640 C.2   195  PHE195      0.2595
     90  O         40.0750  114.8140   -0.9380 O.2   195  PHE195     -0.2718
     91  CB        38.8560  117.8760   -1.4740 C.3   195  PHE195      0.0547
     92  CG        37.6370  117.2470   -0.8570 C.ar  195  PHE195     -0.0202
     93  CD1       37.2440  117.5860    0.4390 C.ar  195  PHE195     -0.0042
     94  CD2       36.8860  116.3070   -1.5650 C.ar  195  PHE195     -0.0042
     95  CE1       36.1120  116.9970    1.0240 C.ar  195  PHE195     -0.0003
     96  CE2       35.7560  115.7120   -0.9920 C.ar  195  PHE195     -0.0003
     97  CZ        35.3670  116.0570    0.3030 C.ar  195  PHE195     -0.0000
     98  N         40.3920  115.6890   -2.9790 N.am  196  MET196     -0.1979
     99  CA        40.4360  114.3680   -3.5990 C.3   196  MET196      0.1605
    100  C         41.7190  113.6380   -3.2220 C.2   196  MET196      0.2287
    101  O         41.7430  112.4060   -3.1500 O.2   196  MET196     -0.2864
    102  CB        40.3050  114.4650   -5.1280 C.3   196  MET196      0.0413
    103  CG        38.8990  114.8090   -5.6050 C.3   196  MET196      0.0598
    104  SD        37.5960  113.9350   -4.6620 S.3   196  MET196     -0.1393
    105  CE        37.9090  112.2190   -5.1500 C.3   196  MET196      0.0692
    106  N         41.3530  111.7430   -0.2440 N.3   199  MET199     -0.1245
    107  CA        40.5330  110.5530   -0.4520 C.3   199  MET199      0.1570
    108  C         41.3490  109.4110   -1.0430 C.2   199  MET199      0.2261
    109  O         40.8600  108.2870   -1.1600 O.2   199  MET199     -0.2867
    110  CB        39.3480  110.8560   -1.3730 C.3   199  MET199      0.0387
    111  CG        38.2210  111.6260   -0.7070 C.3   199  MET199      0.0595
    112  SD        36.7820  111.7840   -1.7750 S.3   199  MET199     -0.1393
    113  CE        35.8450  110.3170   -1.3180 C.3   199  MET199      0.0692
    114  N         40.4190  115.0190  -12.9060 N.3   209  LEU209     -0.1231
    115  CA        39.0290  115.1070  -12.4650 C.3   209  LEU209      0.1693
    116  C         38.5160  116.5490  -12.4310 C.2   209  LEU209      0.2592
    117  O         37.4830  116.8650  -13.0260 O.2   209  LEU209     -0.2718
    118  CB        38.8890  114.4940  -11.0710 C.3   209  LEU209      0.0284
    119  CG        37.5250  113.9520  -10.6310 C.3   209  LEU209      0.0019
    120  CD1       37.5510  113.7710   -9.1210 C.3   209  LEU209      0.0001
    121  CD2       36.3990  114.8920  -11.0250 C.3   209  LEU209      0.0001
    122  N         39.2360  117.4150  -11.7210 N.am  210  TYR210     -0.1976
    123  CA        38.8500  118.8180  -11.5960 C.3   210  TYR210      0.1639
    124  C         38.8040  119.4930  -12.9550 C.2   210  TYR210      0.2290
    125  O         37.9640  120.3610  -13.2030 O.2   210  TYR210     -0.2864
    126  CB        39.8280  119.5660  -10.6860 C.3   210  TYR210      0.0560
    127  CG        39.7550  119.1480   -9.2320 C.ar  210  TYR210     -0.0198
    128  CD1       40.9190  118.9400   -8.4880 C.ar  210  TYR210     -0.0009
    129  CD2       38.5220  118.9800   -8.5920 C.ar  210  TYR210     -0.0009
    130  CE1       40.8580  118.5720   -7.1430 C.ar  210  TYR210      0.0417
    131  CE2       38.4500  118.6160   -7.2500 C.ar  210  TYR210      0.0417
    132  CZ        39.6230  118.4130   -6.5340 C.ar  210  TYR210      0.1957
    133  OH        39.5620  118.0400   -5.2130 O.3   210  TYR210     -0.2866
    134  N         35.4140  118.0840  -14.9570 N.3   213  ILE213     -0.1245
    135  CA        34.1510  118.6590  -14.5140 C.3   213  ILE213      0.1561
    136  C         34.1340  120.1600  -14.7470 C.2   213  ILE213      0.2260
    137  O         33.0840  120.7460  -15.0080 O.2   213  ILE213     -0.2867
    138  CB        33.8860  118.3740  -13.0220 C.3   213  ILE213      0.0252
    139  CG1       35.0120  118.9540  -12.1640 C.3   213  ILE213      0.0019
    140  CG2       33.7330  116.8720  -12.8100 C.3   213  ILE213      0.0019
    141  CD1       34.7910  118.7860  -10.6620 C.3   213  ILE213      0.0001
@<TRIPOS>BOND
     1   137   136    2
     2   134   135    1
     3   136   135    1
     4   135   138    1
     5   125   124    2
     6   117   116    2
     7   138   140    1
     8   138   139    1
     9   124   123    1
    10   114   115    1
    11   115   116    1
    12   115   118    1
    13   116   122   am
    14   139   141    1
    15   122   123    1
    16   123   126    1
    17   118   119    1
    18   121   119    1
    19   126   127    1
    20   119   120    1
    21   127   129   ar
    22   127   128   ar
    23   129   131   ar
    24   128   130   ar
    25    79    76    1
    26   131   132   ar
    27   130   132   ar
    28    78    77    2
    29   132   133    1
    30    76    77    1
    31    76    75    1
    32    77    80   am
    33    75    73   am
    34    80    81    1
    35    82    81    1
    36    82    83    2
    37   103   102    1
    38   103   104    1
    39    81    84    1
    40    22    20    1
    41   105   104    1
    42    73    72    1
    43    73    74    2
    44   102    99    1
    45    72    71    1
    46    38    36   ar
    47    38    39   ar
    48    84    85    1
    49    84    86    1
    50    71    66   am
    51    51    50    1
    52    20    19    1
    53    36    35   ar
    54    39    37   ar
    55    99   100    1
    56    99    98    1
    57    21    19    1
    58    48    50   ar
    59    48    46   ar
    60   100   101    2
    61    19    16    1
    62    50    49   ar
    63    98    89   am
    64    31    30    1
    65    31    32    1
    66    31    34    1
    67    35    37   ar
    68    35    34    1
    69    66    67    2
    70    66    65    1
    71    46    45   ar
    72    32    33    2
    73    18    17    2
    74    65    68    1
    75    65    64    1
    76   112   113    1
    77   112   111    1
    78    49    47   ar
    79    89    88    1
    80    89    90    2
    81    16    17    1
    82    16    15    1
    83    94    96   ar
    84    94    92   ar
    85    17    23   am
    86    91    88    1
    87    91    92    1
    88    87    88    1
    89    68    69    1
    90   110   111    1
    91   110   107    1
    92   109   108    2
    93   108   107    1
    94    96    97   ar
    95    23    24    1
    96    15    11   am
    97    45    47   ar
    98    45    44    1
    99    92    93   ar
   100    40    41    1
   101    24    27    1
   102    24    25    1
   103    64    70    1
   104   107   106    1
   105    27    29    1
   106    27    28    1
   107     8     6   am
   108    14    13    1
   109    69    70    1
   110    44    41    1
   111    25    26    2
   112    97    95   ar
   113    11    12    2
   114    11    10    1
   115    93    95   ar
   116    41    42    1
   117     6     5    1
   118     6     7    2
   119    10    13    1
   120    10     9    1
   121     5     2    1
   122    61    59   ar
   123    61    62   ar
   124    42    43    2
   125    59    57   ar
   126    63    62    1
   127     4     3    2
   128    62    60   ar
   129     2     3    1
   130     2     1    1
   131    57    56    1
   132    57    58   ar
   133    56    53    1
   134    60    58   ar
   135    54    53    1
   136    54    55    2
   137    53    52    1
