@<TRIPOS>MOLECULE
tmp/1xi9C00.pdb
 140 131 0 0 0
SMALL
GASTEIGER

@<TRIPOS>ATOM
      1  N         79.1350  167.9290   26.8600 N.3    99  ALA99      -0.1231
      2  CA        78.4240  167.5970   28.1010 C.3    99  ALA99       0.1694
      3  C         79.0730  166.4050   28.8060 C.2    99  ALA99       0.2592
      4  O         80.0470  165.8150   28.2960 O.2    99  ALA99      -0.2718
      5  CB        76.9250  167.3590   27.8220 C.3    99  ALA99       0.0304
      6  N         78.5480  166.0570   29.9790 N.am  100  VAL100     -0.1966
      7  CA        79.0130  164.8820   30.7290 C.3   100  VAL100      0.1727
      8  C         78.8010  163.5950   29.9430 C.2   100  VAL100      0.2616
      9  O         79.6150  162.6670   30.0130 O.2   100  VAL100     -0.2715
     10  CB        78.3520  164.7990   32.1420 C.3   100  VAL100      0.0290
     11  CG1       78.7160  163.4930   32.8700 C.3   100  VAL100      0.0023
     12  CG2       78.7760  165.9880   32.9660 C.3   100  VAL100      0.0023
     13  N         77.7020  163.5630   29.1950 N.am  101  THR101     -0.1951
     14  CA        77.3490  162.4390   28.3540 C.3   101  THR101      0.1897
     15  C         78.5300  162.0160   27.4880 C.2   101  THR101      0.2313
     16  O         78.8870  160.8250   27.4780 O.2   101  THR101     -0.2863
     17  CB        76.1240  162.7830   27.4900 C.3   101  THR101      0.1794
     18  OG1       74.9550  162.7640   28.3170 O.3   101  THR101     -0.2208
     19  CG2       75.8520  161.6800   26.4460 C.3   101  THR101      0.0378
     20  N         81.5830  160.6400   29.4200 N.3   104  LEU104     -0.1245
     21  CA        81.3680  159.2260   29.7220 C.3   104  LEU104      0.1561
     22  C         81.6370  158.3150   28.5370 C.2   104  LEU104      0.2260
     23  O         82.2650  157.2820   28.7070 O.2   104  LEU104     -0.2867
     24  CB        79.9570  158.9880   30.2610 C.3   104  LEU104      0.0270
     25  CG        79.5990  159.4880   31.6620 C.3   104  LEU104      0.0019
     26  CD1       78.0780  159.4470   31.7900 C.3   104  LEU104      0.0001
     27  CD2       80.2750  158.6390   32.7320 C.3   104  LEU104      0.0001
     28  N         72.3720  155.2100   37.6740 N.3   125  TYR125     -0.1241
     29  CA        71.9190  156.1610   36.6750 C.3   125  TYR125      0.1605
     30  C         72.0610  155.4260   35.3250 C.2   125  TYR125      0.2264
     31  O         73.1600  155.0020   34.9590 O.2   125  TYR125     -0.2867
     32  CB        72.7260  157.4630   36.7960 C.3   125  TYR125      0.0534
     33  CG        72.5290  158.5010   35.7080 C.ar  125  TYR125     -0.0201
     34  CD1       73.6150  158.9080   34.9080 C.ar  125  TYR125     -0.0009
     35  CD2       71.2750  159.0940   35.4820 C.ar  125  TYR125     -0.0009
     36  CE1       73.4540  159.8770   33.9040 C.ar  125  TYR125      0.0417
     37  CE2       71.1020  160.0610   34.4790 C.ar  125  TYR125      0.0417
     38  CZ        72.1870  160.4440   33.6930 C.ar  125  TYR125      0.1957
     39  OH        72.0190  161.3880   32.6890 O.3   125  TYR125     -0.2866
     40  N         78.8860  158.7420   41.8060 N.3   171  ILE171     -0.1245
     41  CA        77.9380  159.7600   41.3540 C.3   171  ILE171      0.1561
     42  C         77.4510  160.5470   42.5660 C.2   171  ILE171      0.2260
     43  O         76.5800  160.0920   43.3040 O.2   171  ILE171     -0.2867
     44  CB        76.7990  159.1480   40.5130 C.3   171  ILE171      0.0252
     45  CG1       77.4060  158.2410   39.4260 C.3   171  ILE171      0.0019
     46  CG2       75.9650  160.2600   39.8780 C.3   171  ILE171      0.0019
     47  CD1       76.3940  157.4920   38.6490 C.3   171  ILE171      0.0001
     48  N         71.9940  160.9130   41.6280 N.3   175  ASN175     -0.1240
     49  CA        70.7810  160.6320   40.8580 C.3   175  ASN175      0.1653
     50  C         70.6920  159.1010   40.8230 C.2   175  ASN175      0.2266
     51  O         71.6310  158.4780   40.3150 O.2   175  ASN175     -0.2867
     52  CB        70.9230  161.2230   39.4450 C.3   175  ASN175      0.1155
     53  CG        69.6640  161.0480   38.5740 C.2   175  ASN175      0.2627
     54  OD1       68.7210  160.3160   38.9200 O.2   175  ASN175     -0.2716
     55  ND2       69.6570  161.7210   37.4290 N.am  175  ASN175     -0.0877
     56  N         81.4590  161.7280   39.0670 N.3   203  ASP203     -0.1239
     57  CA        80.4480  162.5320   38.4070 C.3   203  ASP203      0.1674
     58  C         79.9810  163.6260   39.3720 C.2   203  ASP203      0.2266
     59  O         79.2420  163.3480   40.3370 O.2   203  ASP203     -0.2867
     60  CB        79.2710  161.6600   38.0070 C.3   203  ASP203      0.1410
     61  CG        78.3600  162.3280   36.9930 C.2   203  ASP203      0.3668
     62  OD1       78.3180  163.5800   36.8990 O.co2 203  ASP203     -0.2456
     63  OD2       77.6450  161.6600   36.2160 O.co2 203  ASP203     -0.2456
     64  N         78.4170  166.6830   38.3760 N.3   205  ILE205     -0.1231
     65  CA        77.4610  167.5850   37.7370 C.3   205  ILE205      0.1692
     66  C         76.5080  168.3610   38.6890 C.2   205  ILE205      0.2592
     67  O         76.1110  169.4830   38.3490 O.2   205  ILE205     -0.2718
     68  CB        76.6750  166.8730   36.5850 C.3   205  ILE205      0.0266
     69  CG1       76.1320  167.9400   35.6050 C.3   205  ILE205      0.0019
     70  CG2       75.5740  165.9250   37.1350 C.3   205  ILE205      0.0020
     71  CD1       75.4720  167.4020   34.3620 C.3   205  ILE205      0.0001
     72  N         76.1580  167.7770   39.8460 N.am  206  TYR206     -0.1976
     73  CA        75.2940  168.4230   40.8830 C.3   206  TYR206      0.1639
     74  C         76.0980  169.0750   42.0290 C.2   206  TYR206      0.2290
     75  O         75.5360  169.5000   43.0380 O.2   206  TYR206     -0.2864
     76  CB        74.2500  167.4530   41.4580 C.3   206  TYR206      0.0560
     77  CG        73.3340  166.8650   40.4170 C.ar  206  TYR206     -0.0198
     78  CD1       72.3380  167.6390   39.8250 C.ar  206  TYR206     -0.0009
     79  CD2       73.4660  165.5320   40.0160 C.ar  206  TYR206     -0.0009
     80  CE1       71.5050  167.1130   38.8640 C.ar  206  TYR206      0.0417
     81  CE2       72.6330  164.9960   39.0380 C.ar  206  TYR206      0.0417
     82  CZ        71.6580  165.8040   38.4730 C.ar  206  TYR206      0.1957
     83  OH        70.8200  165.3160   37.5180 O.3   206  TYR206     -0.2866
     84  N         79.9020  169.9080   34.2910 N.3   232  GLY232     -0.1225
     85  CA        79.3810  170.6380   33.1600 C.3   232  GLY232      0.1811
     86  C         78.3600  171.6960   33.5000 C.2   232  GLY232      0.2280
     87  O         78.1600  172.0340   34.6870 O.2   232  GLY232     -0.2866
     88  N         75.0320  171.6430   32.4810 N.3   234  SER234     -0.1202
     89  CA        73.6370  171.2070   32.4380 C.3   234  SER234      0.2020
     90  C         72.7960  171.5020   33.6770 C.2   234  SER234      0.2618
     91  O         71.6660  171.9770   33.5620 O.2   234  SER234     -0.2717
     92  CB        73.5560  169.7280   32.1410 C.3   234  SER234      0.2103
     93  OG        73.9600  169.4810   30.8200 O.3   234  SER234     -0.2182
     94  N         73.3310  171.2260   34.8620 N.am  235  LYS235     -0.1979
     95  CA        72.4850  171.2920   36.0600 C.3   235  LYS235      0.1596
     96  C         72.7140  172.5130   36.9400 C.2   235  LYS235      0.2287
     97  O         71.7930  173.2990   37.1340 O.2   235  LYS235     -0.2864
     98  CB        72.5270  169.9560   36.8300 C.3   235  LYS235      0.0298
     99  CG        72.1970  168.6960   35.9680 C.3   235  LYS235      0.0038
    100  CD        70.9700  168.8700   35.0580 C.3   235  LYS235      0.0206
    101  CE        70.2500  167.5310   34.7340 C.3   235  LYS235      0.1093
    102  NZ        71.1960  166.3640   34.5180 N.3   235  LYS235     -0.1314
    103  N         70.9710  172.7040   30.1720 N.3   240  THR240     -0.1218
    104  CA        70.8140  171.3340   29.6890 C.3   240  THR240      0.1862
    105  C         70.9190  171.2510   28.1740 C.2   240  THR240      0.2287
    106  O         71.6010  170.3750   27.6550 O.2   240  THR240     -0.2866
    107  CB        69.4900  170.7130   30.1990 C.3   240  THR240      0.1770
    108  OG1       68.4750  171.7250   30.2540 O.3   240  THR240     -0.2211
    109  CG2       69.6080  170.3130   31.6470 C.3   240  THR240      0.0375
    110  N         74.5230  171.5130   25.8790 N.3   243  ARG243     -0.1231
    111  CA        75.3530  170.3140   25.6800 C.3   243  ARG243      0.1694
    112  C         76.8440  170.6140   25.8240 C.2   243  ARG243      0.2591
    113  O         77.6280  170.3680   24.9100 O.2   243  ARG243     -0.2718
    114  CB        75.0700  169.6100   24.3240 C.3   243  ARG243      0.0321
    115  CG        73.6270  169.4290   23.9060 C.3   243  ARG243      0.0489
    116  CD        72.7150  168.7680   24.9210 C.3   243  ARG243      0.2205
    117  NE        73.1860  167.4540   25.3540 N.pl3 243  ARG243     -0.0865
    118  CZ        73.5820  167.1590   26.5950 C.cat 243  ARG243      0.5346
    119  NH1       73.5670  168.0950   27.5530 N.pl3 243  ARG243      0.1354
    120  NH2       73.9960  165.9200   26.8830 N.pl3 243  ARG243      0.1354
    121  N         77.2250  171.1650   26.9710 N.am  244  LEU244     -0.1980
    122  CA        78.6200  171.4780   27.2450 C.3   244  LEU244      0.1596
    123  C         79.0350  171.0200   28.6300 C.2   244  LEU244      0.2287
    124  O         78.3100  171.2290   29.6250 O.2   244  LEU244     -0.2864
    125  CB        78.9090  172.9760   27.0700 C.3   244  LEU244      0.0297
    126  CG        80.3940  173.1000   26.6580 C.3   244  LEU244      0.0022
    127  CD1       80.6390  172.9210   25.1510 C.3   244  LEU244      0.0001
    128  CD2       81.0030  174.3710   27.1650 C.3   244  LEU244      0.0001
    129  N         66.0410  165.3740   43.0300 N.3   326  TYR326     -0.1241
    130  CA        65.2850  164.1400   42.9680 C.3   326  TYR326      0.1605
    131  C         64.9960  163.6680   44.3800 C.2   326  TYR326      0.2264
    132  O         65.7640  163.9690   45.3030 O.2   326  TYR326     -0.2867
    133  CB        66.1010  163.0380   42.2600 C.3   326  TYR326      0.0534
    134  CG        66.7110  163.4720   40.9510 C.ar  326  TYR326     -0.0201
    135  CD1       65.9120  163.6290   39.8070 C.ar  326  TYR326     -0.0009
    136  CD2       68.0650  163.7360   40.8520 C.ar  326  TYR326     -0.0009
    137  CE1       66.4500  164.0390   38.5990 C.ar  326  TYR326      0.0417
    138  CE2       68.6210  164.1400   39.6530 C.ar  326  TYR326      0.0417
    139  CZ        67.8050  164.2940   38.5210 C.ar  326  TYR326      0.1957
    140  OH        68.3330  164.7070   37.3270 O.3   326  TYR326     -0.2866
@<TRIPOS>BOND
     1   115   114    1
     2   115   116    1
     3   114   111    1
     4   113   112    2
     5   116   117    1
     6   127   126    1
     7   117   118    2
     8   111   112    1
     9   111   110    1
    10   112   121   am
    11    19    17    1
    12   118   120    1
    13   118   119    1
    14   126   125    1
    15   126   128    1
    16     1     2    1
    17   121   122    1
    18   125   122    1
    19   122   123    1
    20    16    15    2
    21    15    14    1
    22    17    18    1
    23    17    14    1
    24   106   105    2
    25     5     2    1
    26     2     3    1
    27   105   104    1
    28     4     3    2
    29    14    13    1
    30    22    23    2
    31    22    21    1
    32   123   124    2
    33     3     6   am
    34    13     8   am
    35    20    21    1
    36   104   103    1
    37   104   107    1
    38    21    24    1
    39     8     9    2
    40     8     7    1
    41     6     7    1
    42   107   108    1
    43   107   109    1
    44    24    25    1
    45     7    10    1
    46    93    92    1
    47    25    26    1
    48    25    27    1
    49    92    89    1
    50    10    11    1
    51    10    12    1
    52    89    88    1
    53    89    90    1
    54    39    38    1
    55    85    86    1
    56    85    84    1
    57    86    87    2
    58    91    90    2
    59    90    94   am
    60    38    36   ar
    61    38    37   ar
    62    36    34   ar
    63    71    69    1
    64    37    35   ar
    65   102   101    1
    66   101   100    1
    67    94    95    1
    68    34    33   ar
    69    31    30    2
    70   100    99    1
    71    30    29    1
    72    35    33   ar
    73    69    68    1
    74    33    32    1
    75    99    98    1
    76    95    98    1
    77    95    96    1
    78    63    61   ar
    79    68    70    1
    80    68    65    1
    81    29    32    1
    82    29    28    1
    83    62    61   ar
    84    96    97    2
    85    61    60    1
    86   140   139    1
    87    55    53   am
    88    83    82    1
    89    65    64    1
    90    65    66    1
    91    60    57    1
    92    67    66    2
    93    57    56    1
    94    57    58    1
    95    82    80   ar
    96    82    81   ar
    97   139   137   ar
    98   139   138   ar
    99    53    54    2
   100    53    52    1
   101   137   135   ar
   102    47    45    1
   103    66    72   am
   104    80    78   ar
   105    81    79   ar
   106    58    59    2
   107    45    44    1
   108    52    49    1
   109   138   136   ar
   110   135   134   ar
   111    78    77   ar
   112    72    73    1
   113    46    44    1
   114    79    77   ar
   115    51    50    2
   116    77    76    1
   117    44    41    1
   118    50    49    1
   119   136   134   ar
   120    49    48    1
   121    73    76    1
   122    73    74    1
   123   134   133    1
   124    41    40    1
   125    41    42    1
   126    74    75    2
   127   133   130    1
   128    42    43    2
   129   130   129    1
   130   130   131    1
   131   131   132    2
