@<TRIPOS>MOLECULE
tmp/1xidA00.pdb
 156 147 0 0 0
SMALL
GASTEIGER

@<TRIPOS>ATOM
      1  N         36.5780   25.6550   63.3270 N.3    16  TRP16      -0.1241
      2  CA        37.6470   25.8540   62.3590 C.3    16  TRP16       0.1605
      3  C         38.7030   26.8110   62.8720 C.2    16  TRP16       0.2264
      4  O         39.7170   26.9880   62.1460 O.2    16  TRP16      -0.2867
      5  CB        37.0280   26.3430   61.0100 C.3    16  TRP16       0.0550
      6  CG        36.4790   27.7390   61.0830 C.ar   16  TRP16       0.0003
      7  CD1       37.1470   28.9110   60.8520 C.ar   16  TRP16       0.0946
      8  CD2       35.1620   28.1520   61.4570 C.ar   16  TRP16       0.0152
      9  NE1       36.3600   30.0460   61.0370 N.ar   16  TRP16      -0.2442
     10  CE2       35.1200   29.5690   61.3910 C.ar   16  TRP16       0.0810
     11  CE3       34.0070   27.4550   61.8140 C.ar   16  TRP16       0.0012
     12  CZ2       33.9630   30.3090   61.6800 C.ar   16  TRP16       0.0191
     13  CZ3       32.8780   28.2100   62.0700 C.ar   16  TRP16       0.0001
     14  CH2       32.8410   29.6180   62.0400 C.ar   16  TRP16       0.0015
     15  N         30.9420   25.2200   60.2100 N.3    54  HIS54      -0.1241
     16  CA        30.5220   24.9190   58.8550 C.3    54  HIS54       0.1621
     17  C         30.0430   23.4700   58.8000 C.2    54  HIS54       0.2264
     18  O         30.6300   22.6230   59.4990 O.2    54  HIS54      -0.2867
     19  CB        31.6300   25.0320   57.8150 C.3    54  HIS54       0.0745
     20  CG        32.3180   26.3470   57.8000 C.ar   54  HIS54       0.0817
     21  ND1       33.3310   26.6520   58.6600 N.ar   54  HIS54      -0.2268
     22  CD2       32.1260   27.4470   57.0250 C.ar   54  HIS54       0.1154
     23  CE1       33.7450   27.9040   58.4530 C.ar   54  HIS54       0.1986
     24  NE2       33.0240   28.4150   57.4870 N.ar   54  HIS54      -0.2212
     25  N         26.9590   27.8130   59.5810 N.3    90  THR90      -0.1203
     26  CA        27.2210   28.3140   58.2200 C.3    90  THR90       0.1994
     27  C         27.5580   27.1660   57.3030 C.2    90  THR90       0.2618
     28  O         27.6390   25.9920   57.7270 O.2    90  THR90      -0.2717
     29  CB        28.3190   29.3640   58.3520 C.3    90  THR90       0.1784
     30  OG1       28.5720   29.9880   57.1080 O.3    90  THR90      -0.2211
     31  CG2       29.6260   28.7180   58.8570 C.3    90  THR90       0.0376
     32  N         27.7260   27.4370   55.9990 N.am   91  THR91      -0.1952
     33  CA        27.9850   26.4430   54.9900 C.3    91  THR91       0.1897
     34  C         29.3830   26.5930   54.4650 C.2    91  THR91       0.2313
     35  O         29.8450   27.7600   54.3010 O.2    91  THR91      -0.2863
     36  CB        27.0150   26.5870   53.7770 C.3    91  THR91       0.1794
     37  OG1       25.7280   27.0910   54.2160 O.3    91  THR91      -0.2208
     38  CG2       26.7960   25.2780   52.9660 C.3    91  THR91       0.0378
     39  N         33.3570   27.1440   49.8300 N.3    94  PHE94      -0.1241
     40  CA        34.6140   27.6940   49.3560 C.3    94  PHE94       0.1605
     41  C         35.7220   26.6500   49.1840 C.2    94  PHE94       0.2264
     42  O         36.5820   26.9070   48.3260 O.2    94  PHE94      -0.2867
     43  CB        35.1130   28.8670   50.2950 C.3    94  PHE94       0.0534
     44  CG        35.0870   28.6010   51.7640 C.ar   94  PHE94      -0.0203
     45  CD1       36.1870   28.0190   52.3490 C.ar   94  PHE94      -0.0042
     46  CD2       33.9630   28.8940   52.5410 C.ar   94  PHE94      -0.0042
     47  CE1       36.2480   27.7920   53.7340 C.ar   94  PHE94      -0.0003
     48  CE2       33.9990   28.6470   53.9280 C.ar   94  PHE94      -0.0003
     49  CZ        35.1130   28.0720   54.5120 C.ar   94  PHE94      -0.0000
     50  N         25.0680   32.1320   59.0700 N.3   135  VAL135     -0.1245
     51  CA        25.9730   33.0730   58.3520 C.3   135  VAL135      0.1561
     52  C         26.2270   32.6280   56.9050 C.2   135  VAL135      0.2260
     53  O         26.3450   31.4270   56.6390 O.2   135  VAL135     -0.2867
     54  CB        27.2510   33.2210   59.1850 C.3   135  VAL135      0.0252
     55  CG1       28.4190   33.7530   58.4030 C.3   135  VAL135      0.0019
     56  CG2       26.9160   34.1440   60.3670 C.3   135  VAL135      0.0019
     57  N         29.1720   33.5870   54.1440 N.3   137  TRP137     -0.1298
     58  CA        30.4220   34.2430   53.7290 C.3   137  TRP137      0.1291
     59  C         30.6420   33.7910   52.2440 C.3   137  TRP137      0.2013
     60  O         31.0910   32.6220   52.1170 O.3   137  TRP137     -0.2188
     61  CB        31.5930   33.8350   54.5680 C.3   137  TRP137      0.0497
     62  CG        32.8830   34.3850   54.0220 C.ar  137  TRP137     -0.0001
     63  CD1       33.1650   35.7400   53.8230 C.ar  137  TRP137      0.0946
     64  CD2       34.0570   33.6800   53.6160 C.ar  137  TRP137      0.0152
     65  NE1       34.4230   35.8680   53.2810 N.ar  137  TRP137     -0.2442
     66  CE2       35.0130   34.6480   53.1610 C.ar  137  TRP137      0.0810
     67  CE3       34.4140   32.3350   53.5940 C.ar  137  TRP137      0.0012
     68  CZ2       36.2570   34.3180   52.6460 C.ar  137  TRP137      0.0191
     69  CZ3       35.6740   32.0000   53.0820 C.ar  137  TRP137      0.0001
     70  CH2       36.5540   32.9790   52.6370 C.ar  137  TRP137      0.0015
     71  N         28.3050   38.0210   55.5590 N.3   181  GLU181     -0.1245
     72  CA        29.6280   38.4380   56.0190 C.3   181  GLU181      0.1567
     73  C         30.4370   39.0040   54.8770 C.2   181  GLU181      0.2260
     74  O         30.7550   38.2020   53.9670 O.2   181  GLU181     -0.2867
     75  CB        30.2850   37.1850   56.6190 C.3   181  GLU181      0.0388
     76  CG        31.7120   37.5610   57.1200 C.3   181  GLU181      0.1160
     77  CD        32.3340   36.3800   57.8620 C.2   181  GLU181      0.3649
     78  OE1       31.6420   35.4130   58.2040 O.co2 181  GLU181     -0.2457
     79  OE2       33.5390   36.6760   58.0910 O.co2 181  GLU181     -0.2457
     80  N         33.6770   40.6130   52.8250 N.3   183  LYS183     -0.1245
     81  CA        35.1670   40.5550   52.8080 C.3   183  LYS183      0.1561
     82  C         35.5680   41.2080   51.4990 C.2   183  LYS183      0.2260
     83  O         34.8890   40.8800   50.4890 O.2   183  LYS183     -0.2867
     84  CB        35.6340   39.0920   52.9850 C.3   183  LYS183      0.0271
     85  CG        37.1950   39.0420   53.0690 C.3   183  LYS183      0.0035
     86  CD        37.7310   37.6130   53.2160 C.3   183  LYS183      0.0206
     87  CE        39.2670   37.6730   53.4220 C.3   183  LYS183      0.1093
     88  NZ        39.7210   36.2450   53.5740 N.3   183  LYS183     -0.1314
     89  N         27.0870   40.0590   59.3190 N.3   215  ASN215     -0.1240
     90  CA        28.0800   39.5260   60.2630 C.3   215  ASN215      0.1653
     91  C         29.4100   40.1750   59.9620 C.2   215  ASN215      0.2266
     92  O         30.2470   39.5530   59.2350 O.2   215  ASN215     -0.2867
     93  CB        28.0250   37.9570   60.1110 C.3   215  ASN215      0.1155
     94  CG        29.0530   37.3230   61.0430 C.2   215  ASN215      0.2627
     95  OD1       29.1530   37.7510   62.2440 O.2   215  ASN215     -0.2716
     96  ND2       29.9610   36.4640   60.5850 N.am  215  ASN215     -0.0877
     97  N         33.3480   41.4090   60.1640 N.3   217  GLU217     -0.1245
     98  CA        34.5270   40.8600   60.8030 C.3   217  GLU217      0.1567
     99  C         35.5530   41.9520   60.9400 C.2   217  GLU217      0.2260
    100  O         35.8370   42.6100   59.9470 O.2   217  GLU217     -0.2867
    101  CB        35.1610   39.7150   59.9970 C.3   217  GLU217      0.0388
    102  CG        36.3340   39.1620   60.7850 C.3   217  GLU217      0.1160
    103  CD        36.9500   38.0090   60.0480 C.2   217  GLU217      0.3649
    104  OE1       36.3650   36.9940   59.8720 O.co2 217  GLU217     -0.2457
    105  OE2       38.1180   38.0020   59.6660 O.co2 217  GLU217     -0.2457
    106  N         38.2880   41.9630   58.2700 N.3   220  HIS220     -0.1241
    107  CA        37.8050   42.1720   56.8580 C.3   220  HIS220      0.1621
    108  C         37.5780   43.6350   56.5280 C.2   220  HIS220      0.2264
    109  O         38.0760   44.1000   55.4630 O.2   220  HIS220     -0.2867
    110  CB        36.5690   41.3610   56.6220 C.3   220  HIS220      0.0745
    111  CG        36.7540   39.8700   56.6640 C.ar  220  HIS220      0.0817
    112  ND1       35.7150   38.9680   56.4870 N.ar  220  HIS220     -0.2268
    113  CD2       37.8800   39.1310   56.8460 C.ar  220  HIS220      0.1154
    114  CE1       36.1810   37.7300   56.6110 C.ar  220  HIS220      0.1986
    115  NE2       37.4990   37.8000   56.8090 N.ar  220  HIS220     -0.2212
    116  N         32.0820   39.0270   64.1190 N.3   245  ASP245     -0.1239
    117  CA        33.2970   38.2120   64.1460 C.3   245  ASP245      0.1674
    118  C         34.4660   39.0640   64.6930 C.2   245  ASP245      0.2266
    119  O         34.8450   40.0580   64.0710 O.2   245  ASP245     -0.2867
    120  CB        33.7610   37.6380   62.7960 C.3   245  ASP245      0.1410
    121  CG        32.9950   36.4420   62.4070 C.2   245  ASP245      0.3668
    122  OD1       32.0490   35.9770   63.0490 O.co2 245  ASP245     -0.2456
    123  OD2       33.2740   35.9270   61.3160 O.co2 245  ASP245     -0.2456
    124  N         44.4880   38.3020   54.9030 N.3   255  ASP255     -0.1239
    125  CA        43.6460   38.1410   56.1250 C.3   255  ASP255      0.1674
    126  C         44.3790   37.3540   57.2150 C.2   255  ASP255      0.2266
    127  O         44.6420   36.1640   57.0280 O.2   255  ASP255     -0.2867
    128  CB        42.3920   37.5390   55.6080 C.3   255  ASP255      0.1410
    129  CG        41.3110   37.2720   56.6160 C.2   255  ASP255      0.3668
    130  OD1       41.0300   38.0770   57.5120 O.co2 255  ASP255     -0.2456
    131  OD2       40.6730   36.1640   56.4560 O.co2 255  ASP255     -0.2456
    132  N         43.6270   37.0740   60.7170 N.3   257  ASP257     -0.1239
    133  CA        42.8570   36.3740   61.7510 C.3   257  ASP257      0.1674
    134  C         43.6160   36.2000   63.0680 C.2   257  ASP257      0.2266
    135  O         43.6230   35.0860   63.6240 O.2   257  ASP257     -0.2867
    136  CB        42.4300   34.9990   61.1900 C.3   257  ASP257      0.1410
    137  CG        41.2990   35.1320   60.2260 C.2   257  ASP257      0.3668
    138  OD1       40.7440   36.2200   59.9740 O.co2 257  ASP257     -0.2456
    139  OD2       40.9090   34.0710   59.7020 O.co2 257  ASP257     -0.2456
    140  N         36.4940   34.6800   65.2540 N.3   287  ASP287     -0.1239
    141  CA        36.8650   34.0200   64.0080 C.3   287  ASP287      0.1674
    142  C         38.3770   34.3300   63.8820 C.2   287  ASP287      0.2266
    143  O         38.7280   35.3870   63.3640 O.2   287  ASP287     -0.2867
    144  CB        36.0110   34.4540   62.8260 C.3   287  ASP287      0.1410
    145  CG        36.4450   33.6390   61.6490 C.2   287  ASP287      0.3668
    146  OD1       37.1580   32.6560   61.6980 O.co2 287  ASP287     -0.2456
    147  OD2       36.0560   33.9750   60.5360 O.co2 287  ASP287     -0.2456
    148  N         42.6970   32.4860   63.8760 N.3   289  LYS289     -0.1301
    149  CA        43.5290   31.3070   63.6790 C.3   289  LYS289      0.1247
    150  C         44.7430   31.4140   64.5420 C.3   289  LYS289      0.2009
    151  O         45.5290   32.4300   64.4620 O.3   289  LYS289     -0.2188
    152  CB        43.9450   31.2120   62.2220 C.3   289  LYS289      0.0218
    153  CG        42.7870   30.9320   61.2870 C.3   289  LYS289      0.0031
    154  CD        43.2370   31.0920   59.8540 C.3   289  LYS289      0.0205
    155  CE        42.1970   30.6530   58.8450 C.3   289  LYS289      0.1093
    156  NZ        40.8720   31.3590   58.8960 N.3   289  LYS289     -0.1314
@<TRIPOS>BOND
     1    42    41    2
     2    41    40    1
     3    40    39    1
     4    40    43    1
     5    43    44    1
     6    83    82    2
     7    82    81    1
     8    44    45   ar
     9    44    46   ar
    10    60    59    1
    11    59    58    1
    12    45    47   ar
    13    46    48   ar
    14    70    68   ar
    15    70    69   ar
    16    68    66   ar
    17    81    80    1
    18    81    84    1
    19    38    36    1
    20    84    85    1
    21    85    86    1
    22    69    67   ar
    23    66    65   ar
    24    66    64   ar
    25    86    87    1
    26    65    63   ar
    27    87    88    1
    28    67    64   ar
    29    64    62   ar
    30    58    57    1
    31    58    61    1
    32    47    49   ar
    33    36    37    1
    34    36    33    1
    35    63    62   ar
    36    48    49   ar
    37    74    73    2
    38    62    61    1
    39    35    34    2
    40    34    33    1
    41    73    72    1
    42   124   125    1
    43    33    32    1
    44   109   108    2
    45    71    72    1
    46   128   125    1
    47   128   129    1
    48    32    27   am
    49    72    75    1
    50   125   126    1
    51   131   129   ar
    52   112   114   ar
    53   112   111   ar
    54   108   107    1
    55   114   115   ar
    56   129   130   ar
    57    75    76    1
    58   110   111    1
    59   110   107    1
    60    53    52    2
    61   111   113   ar
    62   115   113   ar
    63   107   106    1
    64    52    51    1
    65    22    24   ar
    66    22    20   ar
    67   127   126    2
    68    30    29    1
    69    76    77    1
    70    27    28    2
    71    27    26    1
    72    24    23   ar
    73    20    19    1
    74    20    21   ar
    75    19    16    1
    76    77    79   ar
    77    77    78   ar
    78    26    29    1
    79    26    25    1
    80    51    50    1
    81    51    54    1
    82    29    31    1
    83    55    54    1
    84    23    21   ar
    85    17    16    1
    86    17    18    2
    87   155   156    1
    88   155   154    1
    89    16    15    1
    90    54    56    1
    91    92    91    2
    92    89    90    1
    93   105   103   ar
    94   139   137   ar
    95   154   153    1
    96   104   103   ar
    97   100    99    2
    98    91    90    1
    99   138   137   ar
   100   101   102    1
   101   101    98    1
   102   103   102    1
   103    93    90    1
   104    93    94    1
   105    97    98    1
   106   137   136    1
   107   147   145   ar
   108    96    94   am
   109   132   133    1
   110    98    99    1
   111     7     9   ar
   112     7     6   ar
   113     5     6    1
   114     5     2    1
   115     9    10   ar
   116    94    95    2
   117     6     8   ar
   118   136   133    1
   119   153   152    1
   120   123   121   ar
   121    10     8   ar
   122    10    12   ar
   123     8    11   ar
   124   145   146   ar
   125   145   144    1
   126    12    14   ar
   127   133   134    1
   128    11    13   ar
   129    14    13   ar
   130     4     3    2
   131   152   149    1
   132     2     3    1
   133     2     1    1
   134   121   120    1
   135   121   122   ar
   136   120   117    1
   137   144   141    1
   138   134   135    2
   139   143   142    2
   140   149   148    1
   141   149   150    1
   142   142   141    1
   143   141   140    1
   144   119   118    2
   145   116   117    1
   146   117   118    1
   147   151   150    1
