@<TRIPOS>MOLECULE
tmp/1xijA00.pdb
 156 147 0 0 0
SMALL
GASTEIGER

@<TRIPOS>ATOM
      1  N         36.6290   25.6450   63.2740 N.3    14  TRP14      -0.1241
      2  CA        37.7020   25.8720   62.3210 C.3    14  TRP14       0.1605
      3  C         38.7710   26.7850   62.8850 C.2    14  TRP14       0.2264
      4  O         39.8210   26.9800   62.1900 O.2    14  TRP14      -0.2867
      5  CB        37.0930   26.3890   60.9590 C.3    14  TRP14       0.0550
      6  CG        36.5620   27.7990   61.0730 C.ar   14  TRP14       0.0003
      7  CD1       37.2490   28.9670   60.8490 C.ar   14  TRP14       0.0946
      8  CD2       35.2350   28.2080   61.4230 C.ar   14  TRP14       0.0152
      9  NE1       36.4590   30.0760   61.0580 N.ar   14  TRP14      -0.2442
     10  CE2       35.1870   29.6000   61.3630 C.ar   14  TRP14       0.0810
     11  CE3       34.0970   27.4980   61.8050 C.ar   14  TRP14       0.0012
     12  CZ2       34.0320   30.2910   61.6700 C.ar   14  TRP14       0.0191
     13  CZ3       32.9620   28.2210   62.0680 C.ar   14  TRP14       0.0001
     14  CH2       32.8980   29.6100   62.0310 C.ar   14  TRP14       0.0015
     15  N         30.9390   25.2870   60.1300 N.3    52  HIS52      -0.1241
     16  CA        30.5490   24.9040   58.7750 C.3    52  HIS52       0.1621
     17  C         30.0660   23.4580   58.7670 C.2    52  HIS52       0.2264
     18  O         30.6580   22.5650   59.4240 O.2    52  HIS52      -0.2867
     19  CB        31.6970   25.0360   57.7580 C.3    52  HIS52       0.0745
     20  CG        32.2630   26.4160   57.7110 C.ar   52  HIS52       0.0817
     21  ND1       33.2780   26.7900   58.5860 N.ar   52  HIS52      -0.2268
     22  CD2       32.1010   27.4530   56.8230 C.ar   52  HIS52       0.1154
     23  CE1       33.6590   28.0360   58.3340 C.ar   52  HIS52       0.1986
     24  NE2       32.9390   28.4390   57.3130 N.ar   52  HIS52      -0.2212
     25  N         26.9630   27.7600   59.5410 N.3    88  THR88      -0.1203
     26  CA        27.1890   28.2660   58.1820 C.3    88  THR88       0.1994
     27  C         27.5290   27.1770   57.2320 C.2    88  THR88       0.2618
     28  O         27.6740   26.0310   57.6720 O.2    88  THR88      -0.2717
     29  CB        28.2910   29.3640   58.3270 C.3    88  THR88       0.1784
     30  OG1       28.4220   30.0370   57.0460 O.3    88  THR88      -0.2211
     31  CG2       29.6110   28.7700   58.7590 C.3    88  THR88       0.0376
     32  N         27.6250   27.4050   55.9200 N.am   89  THR89      -0.1952
     33  CA        27.9300   26.4360   54.9180 C.3    89  THR89       0.1897
     34  C         29.3380   26.6360   54.3990 C.2    89  THR89       0.2313
     35  O         29.7210   27.8230   54.2170 O.2    89  THR89      -0.2863
     36  CB        26.9820   26.5760   53.7140 C.3    89  THR89       0.1794
     37  OG1       25.6520   27.0340   54.1490 O.3    89  THR89      -0.2208
     38  CG2       26.8030   25.2530   52.8660 C.3    89  THR89       0.0378
     39  N         33.3210   27.1400   49.7490 N.3    92  PHE92      -0.1241
     40  CA        34.5660   27.7470   49.2640 C.3    92  PHE92       0.1605
     41  C         35.6720   26.6930   49.1080 C.2    92  PHE92       0.2264
     42  O         36.5930   26.9510   48.2740 O.2    92  PHE92      -0.2867
     43  CB        35.0300   28.9640   50.1590 C.3    92  PHE92       0.0534
     44  CG        34.9990   28.7330   51.6330 C.ar   92  PHE92      -0.0203
     45  CD1       36.1260   28.1930   52.2820 C.ar   92  PHE92      -0.0042
     46  CD2       33.8840   29.0590   52.3990 C.ar   92  PHE92      -0.0042
     47  CE1       36.1930   27.9420   53.6370 C.ar   92  PHE92      -0.0003
     48  CE2       33.9540   28.7940   53.8040 C.ar   92  PHE92      -0.0003
     49  CZ        35.0600   28.2070   54.3760 C.ar   92  PHE92      -0.0000
     50  N         25.0410   32.1280   59.0700 N.3   133  VAL133     -0.1245
     51  CA        25.9830   33.0350   58.3860 C.3   133  VAL133      0.1561
     52  C         26.2350   32.6200   56.9250 C.2   133  VAL133      0.2260
     53  O         26.2690   31.4050   56.6630 O.2   133  VAL133     -0.2867
     54  CB        27.2990   33.1210   59.1600 C.3   133  VAL133      0.0252
     55  CG1       28.4640   33.6510   58.3240 C.3   133  VAL133      0.0019
     56  CG2       26.9880   34.0040   60.3870 C.3   133  VAL133      0.0019
     57  N         29.1610   33.6410   54.1400 N.3   135  TRP135     -0.1298
     58  CA        30.3500   34.2830   53.6300 C.3   135  TRP135      0.1291
     59  C         30.6350   33.8390   52.1980 C.3   135  TRP135      0.2013
     60  O         31.0820   32.6570   52.0910 O.3   135  TRP135     -0.2188
     61  CB        31.5500   33.9030   54.5050 C.3   135  TRP135      0.0497
     62  CG        32.7800   34.5370   53.9100 C.ar  135  TRP135     -0.0001
     63  CD1       33.0470   35.8280   53.6190 C.ar  135  TRP135      0.0946
     64  CD2       33.9610   33.8090   53.5320 C.ar  135  TRP135      0.0152
     65  NE1       34.2990   36.0140   53.1340 N.ar  135  TRP135     -0.2442
     66  CE2       34.9190   34.7750   53.0580 C.ar  135  TRP135      0.0810
     67  CE3       34.3640   32.4940   53.6310 C.ar  135  TRP135      0.0012
     68  CZ2       36.2070   34.4350   52.5880 C.ar  135  TRP135      0.0191
     69  CZ3       35.5970   32.1220   53.1710 C.ar  135  TRP135      0.0001
     70  CH2       36.4820   33.0590   52.6850 C.ar  135  TRP135      0.0015
     71  N         28.2310   37.9830   55.4770 N.3   179  GLU179     -0.1301
     72  CA        29.5420   38.4110   55.9290 C.3   179  GLU179      0.1252
     73  C         30.3280   38.9770   54.7570 C.3   179  GLU179      0.2009
     74  O         30.6170   38.1250   53.8800 O.3   179  GLU179     -0.2188
     75  CB        30.1980   37.1800   56.5180 C.3   179  GLU179      0.0335
     76  CG        31.6280   37.5500   56.9370 C.3   179  GLU179      0.1156
     77  CD        32.2590   36.4920   57.7760 C.2   179  GLU179      0.3649
     78  OE1       31.5540   35.5180   58.1640 O.co2 179  GLU179     -0.2457
     79  OE2       33.4980   36.6650   57.9980 O.co2 179  GLU179     -0.2457
     80  N         33.6210   40.6520   52.7510 N.3   181  LYS181     -0.1245
     81  CA        35.0960   40.6150   52.6850 C.3   181  LYS181      0.1561
     82  C         35.5270   41.2530   51.3830 C.2   181  LYS181      0.2260
     83  O         34.8630   40.9850   50.3520 O.2   181  LYS181     -0.2867
     84  CB        35.5860   39.1550   52.8590 C.3   181  LYS181      0.0271
     85  CG        37.1440   39.1730   53.0750 C.3   181  LYS181      0.0035
     86  CD        37.7030   37.7380   53.0570 C.3   181  LYS181      0.0206
     87  CE        39.2320   37.8010   53.4000 C.3   181  LYS181      0.1093
     88  NZ        39.6880   36.3900   53.5000 N.3   181  LYS181     -0.1314
     89  N         27.0510   40.0530   59.3580 N.3   213  ASN213     -0.1240
     90  CA        28.0400   39.4940   60.2370 C.3   213  ASN213      0.1653
     91  C         29.3890   40.1460   59.9200 C.2   213  ASN213      0.2266
     92  O         30.2050   39.5320   59.2250 O.2   213  ASN213     -0.2867
     93  CB        28.0460   37.9410   60.0780 C.3   213  ASN213      0.1155
     94  CG        29.0110   37.2920   61.0610 C.2   213  ASN213      0.2627
     95  OD1       29.0650   37.6730   62.2870 O.2   213  ASN213     -0.2716
     96  ND2       29.8790   36.3920   60.5890 N.am  213  ASN213     -0.0877
     97  N         33.3220   41.2560   60.0750 N.3   215  GLU215     -0.1245
     98  CA        34.5550   40.7900   60.7700 C.3   215  GLU215      0.1567
     99  C         35.5840   41.9050   60.8440 C.2   215  GLU215      0.2260
    100  O         35.8250   42.5330   59.8070 O.2   215  GLU215     -0.2867
    101  CB        35.0870   39.5340   60.0640 C.3   215  GLU215      0.0388
    102  CG        36.4200   39.0860   60.6170 C.3   215  GLU215      0.1160
    103  CD        36.9940   37.8590   59.9310 C.2   215  GLU215      0.3649
    104  OE1       36.3700   36.8830   59.9490 O.co2 215  GLU215     -0.2457
    105  OE2       38.1390   37.7920   59.4940 O.co2 215  GLU215     -0.2457
    106  N         38.2220   41.7830   58.1720 N.3   218  HIS218     -0.1241
    107  CA        37.7570   42.0190   56.8050 C.3   218  HIS218      0.1621
    108  C         37.6360   43.5190   56.4740 C.2   218  HIS218      0.2264
    109  O         38.1220   43.9880   55.4070 O.2   218  HIS218     -0.2867
    110  CB        36.4540   41.3030   56.6030 C.3   218  HIS218      0.0745
    111  CG        36.5130   39.7850   56.5730 C.ar  218  HIS218      0.0817
    112  ND1       35.3590   38.9900   56.3480 N.ar  218  HIS218     -0.2268
    113  CD2       37.5800   38.9710   56.7940 C.ar  218  HIS218      0.1154
    114  CE1       35.7810   37.7170   56.3890 C.ar  218  HIS218      0.1986
    115  NE2       37.1090   37.6580   56.6320 N.ar  218  HIS218     -0.2212
    116  N         32.0720   38.9780   64.0340 N.3   243  ASP243     -0.1239
    117  CA        33.2540   38.1490   64.0910 C.3   243  ASP243      0.1674
    118  C         34.4430   38.9940   64.6210 C.2   243  ASP243      0.2266
    119  O         34.7530   40.0240   64.0100 O.2   243  ASP243     -0.2867
    120  CB        33.6790   37.5640   62.7560 C.3   243  ASP243      0.1410
    121  CG        32.9350   36.3520   62.3440 C.2   243  ASP243      0.3668
    122  OD1       32.0470   35.8050   63.0150 O.co2 243  ASP243     -0.2456
    123  OD2       33.1960   35.8980   61.2090 O.co2 243  ASP243     -0.2456
    124  N         44.3800   38.3320   54.9520 N.3   253  ASP253     -0.1239
    125  CA        43.6580   38.1970   56.2910 C.3   253  ASP253      0.1674
    126  C         44.5260   37.4530   57.3250 C.2   253  ASP253      0.2266
    127  O         44.7920   36.2500   57.0870 O.2   253  ASP253     -0.2867
    128  CB        42.2380   37.6320   56.0330 C.3   253  ASP253      0.1410
    129  CG        41.3010   37.6460   57.2390 C.2   253  ASP253      0.3668
    130  OD1       41.7120   37.9530   58.3940 O.co2 253  ASP253     -0.2456
    131  OD2       40.0890   37.2800   57.1980 O.co2 253  ASP253     -0.2456
    132  N         43.8120   37.0320   60.7700 N.3   255  ASP255     -0.1239
    133  CA        43.0400   36.2400   61.7550 C.3   255  ASP255      0.1674
    134  C         43.7700   36.1950   63.0910 C.2   255  ASP255      0.2266
    135  O         43.7410   35.1140   63.7080 O.2   255  ASP255     -0.2867
    136  CB        42.7500   34.8010   61.2950 C.3   255  ASP255      0.1410
    137  CG        41.6720   34.7800   60.2260 C.2   255  ASP255      0.3668
    138  OD1       40.6690   35.5530   60.2790 O.co2 255  ASP255     -0.2456
    139  OD2       41.7860   33.9670   59.2710 O.co2 255  ASP255     -0.2456
    140  N         36.5190   34.6250   65.1850 N.3   285  ASP285     -0.1239
    141  CA        36.9180   33.9570   63.9360 C.3   285  ASP285      0.1674
    142  C         38.3860   34.2480   63.7840 C.2   285  ASP285      0.2266
    143  O         38.6710   35.3090   63.2310 O.2   285  ASP285     -0.2867
    144  CB        36.0180   34.4510   62.8360 C.3   285  ASP285      0.1410
    145  CG        36.4030   33.6480   61.6060 C.2   285  ASP285      0.3668
    146  OD1       37.2060   32.7050   61.6320 O.co2 285  ASP285     -0.2456
    147  OD2       35.8400   33.9300   60.5340 O.co2 285  ASP285     -0.2456
    148  N         42.7710   32.4740   63.9570 N.3   287  LYS287     -0.1301
    149  CA        43.6340   31.3000   63.7700 C.3   287  LYS287      0.1247
    150  C         44.8130   31.3880   64.6740 C.3   287  LYS287      0.2009
    151  O         45.5810   32.4270   64.6500 O.3   287  LYS287     -0.2188
    152  CB        44.1680   31.2800   62.3510 C.3   287  LYS287      0.0218
    153  CG        43.0870   30.8030   61.3870 C.3   287  LYS287      0.0031
    154  CD        43.6590   31.0060   59.9960 C.3   287  LYS287      0.0205
    155  CE        42.7550   30.5440   58.8840 C.3   287  LYS287      0.1093
    156  NZ        41.3640   31.1340   59.0060 N.3   287  LYS287     -0.1314
@<TRIPOS>BOND
     1    42    41    2
     2    41    40    1
     3    40    39    1
     4    40    43    1
     5    43    44    1
     6    83    82    2
     7    82    81    1
     8    44    45   ar
     9    44    46   ar
    10    60    59    1
    11    59    58    1
    12    45    47   ar
    13    46    48   ar
    14    68    70   ar
    15    68    66   ar
    16    70    69   ar
    17    81    80    1
    18    81    84    1
    19    84    85    1
    20    38    36    1
    21    86    85    1
    22    86    87    1
    23    66    65   ar
    24    66    64   ar
    25    65    63   ar
    26    69    67   ar
    27    87    88    1
    28    64    67   ar
    29    64    62   ar
    30    63    62   ar
    31    58    57    1
    32    58    61    1
    33    47    49   ar
    34    36    37    1
    35    36    33    1
    36    48    49   ar
    37    74    73    1
    38    62    61    1
    39    35    34    2
    40    34    33    1
    41    73    72    1
    42    33    32    1
    43   124   125    1
    44   109   108    2
    45    71    72    1
    46    32    27   am
    47    72    75    1
    48   128   125    1
    49   128   129    1
    50   125   126    1
    51   112   114   ar
    52   112   111   ar
    53   114   115   ar
    54   108   107    1
    55    75    76    1
    56   111   110    1
    57   111   113   ar
    58   110   107    1
    59   115   113   ar
    60    53    52    2
    61   107   106    1
    62    22    24   ar
    63    22    20   ar
    64    52    51    1
    65    76    77    1
    66    30    29    1
    67   127   126    2
    68   131   129   ar
    69    27    28    2
    70    27    26    1
    71   129   130   ar
    72    24    23   ar
    73    20    19    1
    74    20    21   ar
    75    19    16    1
    76    77    79   ar
    77    77    78   ar
    78    26    29    1
    79    26    25    1
    80    55    54    1
    81    29    31    1
    82    23    21   ar
    83    51    50    1
    84    51    54    1
    85    17    16    1
    86    17    18    2
    87    16    15    1
    88   155   156    1
    89   155   154    1
    90    54    56    1
    91    92    91    2
    92   139   137   ar
    93    89    90    1
    94   105   103   ar
    95   100    99    2
    96    91    90    1
    97   103   104   ar
    98   103   102    1
    99   154   153    1
   100   101   102    1
   101   101    98    1
   102    97    98    1
   103    93    90    1
   104    93    94    1
   105   137   138   ar
   106   137   136    1
   107   147   145   ar
   108    96    94   am
   109    98    99    1
   110   132   133    1
   111     7     9   ar
   112     7     6   ar
   113     5     6    1
   114     5     2    1
   115     9    10   ar
   116    94    95    2
   117     6     8   ar
   118   123   121   ar
   119   136   133    1
   120    10     8   ar
   121    10    12   ar
   122   153   152    1
   123     8    11   ar
   124   145   146   ar
   125   145   144    1
   126    12    14   ar
   127   133   134    1
   128    11    13   ar
   129    14    13   ar
   130     4     3    2
   131     2     3    1
   132     2     1    1
   133   121   120    1
   134   121   122   ar
   135   152   149    1
   136   120   117    1
   137   144   141    1
   138   134   135    2
   139   143   142    2
   140   149   148    1
   141   149   150    1
   142   142   141    1
   143   141   140    1
   144   119   118    2
   145   116   117    1
   146   117   118    1
   147   151   150    1
