@<TRIPOS>MOLECULE
tmp/1xioA06.pdb
 109 104 0 0 0
SMALL
GASTEIGER

@<TRIPOS>ATOM
      1  N         46.5810   32.1180    5.0580 N.3   123  TYR123     -0.1241
      2  CA        45.2250   31.5780    5.0850 C.3   123  TYR123      0.1605
      3  C         45.2650   30.2770    4.2890 C.2   123  TYR123      0.2264
      4  O         44.7820   29.2370    4.7430 O.2   123  TYR123     -0.2867
      5  CB        44.2400   32.5500    4.4290 C.3   123  TYR123      0.0534
      6  CG        42.8350   31.9930    4.2720 C.ar  123  TYR123     -0.0201
      7  CD1       41.9330   31.9950    5.3410 C.ar  123  TYR123     -0.0009
      8  CD2       42.4090   31.4650    3.0500 C.ar  123  TYR123     -0.0009
      9  CE1       40.6360   31.4910    5.1970 C.ar  123  TYR123      0.0417
     10  CE2       41.1180   30.9550    2.8930 C.ar  123  TYR123      0.0417
     11  CZ        40.2370   30.9750    3.9710 C.ar  123  TYR123      0.1957
     12  OH        38.9570   30.4900    3.8130 O.3   123  TYR123     -0.2866
     13  N         44.3720   26.3790    5.2790 N.3   127  VAL127     -0.1245
     14  CA        43.4120   25.5540    4.5500 C.3   127  VAL127      0.1561
     15  C         44.0640   24.2380    4.1390 C.2   127  VAL127      0.2260
     16  O         43.4400   23.1800    4.2070 O.2   127  VAL127     -0.2867
     17  CB        42.8850   26.2940    3.2840 C.3   127  VAL127      0.0252
     18  CG1       41.9670   25.3850    2.4760 C.3   127  VAL127      0.0019
     19  CG2       42.1350   27.5550    3.6960 C.3   127  VAL127      0.0019
     20  N         44.2740   22.0900    7.0100 N.3   130  PHE130     -0.1227
     21  CA        42.9060   21.6890    7.3120 C.3   130  PHE130      0.1736
     22  C         42.4860   20.5440    6.3870 C.2   130  PHE130      0.2595
     23  O         41.8120   19.6010    6.8110 O.2   130  PHE130     -0.2718
     24  CB        41.9750   22.8970    7.1590 C.3   130  PHE130      0.0547
     25  CG        40.5160   22.5690    7.3000 C.ar  130  PHE130     -0.0202
     26  CD1       40.0450   21.8630    8.4050 C.ar  130  PHE130     -0.0042
     27  CD2       39.6080   22.9950    6.3360 C.ar  130  PHE130     -0.0042
     28  CE1       38.6830   21.5780    8.5420 C.ar  130  PHE130     -0.0003
     29  CE2       38.2480   22.7180    6.4580 C.ar  130  PHE130     -0.0003
     30  CZ        37.7820   22.0120    7.5660 C.ar  130  PHE130     -0.0000
     31  N         42.8970   20.6170    5.1240 N.am  131  LEU131     -0.1980
     32  CA        42.5660   19.5580    4.1710 C.3   131  LEU131      0.1596
     33  C         43.2420   18.2560    4.6030 C.2   131  LEU131      0.2287
     34  O         42.6920   17.1720    4.4150 O.2   131  LEU131     -0.2864
     35  CB        43.0180   19.9430    2.7560 C.3   131  LEU131      0.0297
     36  CG        42.2720   21.1230    2.1180 C.3   131  LEU131      0.0022
     37  CD1       42.8720   21.4350    0.7530 C.3   131  LEU131      0.0001
     38  CD2       40.7850   20.7790    1.9760 C.3   131  LEU131      0.0001
     39  N         41.0210   16.8340    7.2070 N.3   134  LEU134     -0.1245
     40  CA        39.8480   16.1810    6.6410 C.3   134  LEU134      0.1561
     41  C         40.2340   14.8400    6.0350 C.2   134  LEU134      0.2260
     42  O         39.5170   13.8530    6.1940 O.2   134  LEU134     -0.2867
     43  CB        39.1880   17.0820    5.5900 C.3   134  LEU134      0.0270
     44  CG        38.5530   18.3700    6.1420 C.3   134  LEU134      0.0019
     45  CD1       37.8260   19.1200    5.0270 C.3   134  LEU134      0.0001
     46  CD2       37.5770   18.0200    7.2550 C.3   134  LEU134      0.0001
     47  N         38.7960   11.0690    7.4210 N.3   138  TRP138     -0.1241
     48  CA        37.9980   10.3320    6.4420 C.3   138  TRP138      0.1605
     49  C         38.6740    9.0800    5.8950 C.2   138  TRP138      0.2264
     50  O         38.0300    8.2590    5.2360 O.2   138  TRP138     -0.2867
     51  CB        37.6030   11.2410    5.2750 C.3   138  TRP138      0.0550
     52  CG        36.4260   12.1100    5.5960 C.ar  138  TRP138      0.0003
     53  CD1       36.4450   13.4170    5.9970 C.ar  138  TRP138      0.0946
     54  CD2       35.0500   11.7110    5.5830 C.ar  138  TRP138      0.0152
     55  NE1       35.1600   13.8570    6.2330 N.ar  138  TRP138     -0.2442
     56  CE2       34.2870   12.8300    5.9860 C.ar  138  TRP138      0.0810
     57  CE3       34.3870   10.5140    5.2690 C.ar  138  TRP138      0.0012
     58  CZ2       32.8910   12.7860    6.0850 C.ar  138  TRP138      0.0191
     59  CZ3       32.9950   10.4710    5.3680 C.ar  138  TRP138      0.0001
     60  CH2       32.2660   11.6030    5.7730 C.ar  138  TRP138      0.0015
     61  N         38.9530    6.7600    9.7370 N.3   142  ARG142     -0.1245
     62  CA        37.7340    6.0580    9.3580 C.3   142  ARG142      0.1563
     63  C         37.9940    4.5630    9.1720 C.2   142  ARG142      0.2260
     64  O         37.1450    3.7340    9.5050 O.2   142  ARG142     -0.2867
     65  CB        37.1580    6.6450    8.0620 C.3   142  ARG142      0.0307
     66  CG        35.7240    6.2080    7.7750 C.3   142  ARG142      0.0489
     67  CD        35.2110    6.7610    6.4550 C.3   142  ARG142      0.2205
     68  NE        33.7990    6.4540    6.2390 N.pl3 142  ARG142     -0.0865
     69  CZ        33.1930    6.5110    5.0560 C.cat 142  ARG142      0.5346
     70  NH1       33.8730    6.8590    3.9710 N.pl3 142  ARG142      0.1354
     71  NH2       31.9030    6.2280    4.9580 N.pl3 142  ARG142      0.1354
     72  N         32.8070   17.3500    9.9530 N.3   164  THR164     -0.1218
     73  CA        33.3000   17.9760    8.7240 C.3   164  THR164      0.1862
     74  C         32.5090   19.1960    8.2570 C.2   164  THR164      0.2287
     75  O         33.0880   20.2190    7.8840 O.2   164  THR164     -0.2866
     76  CB        33.3190   16.9510    7.5750 C.3   164  THR164      0.1770
     77  OG1       34.1170   15.8290    7.9640 O.3   164  THR164     -0.2211
     78  CG2       33.9070   17.5650    6.3060 C.3   164  THR164      0.0375
     79  N         34.1750   23.0610    8.1870 N.3   168  ILE168     -0.1245
     80  CA        34.3240   23.7580    6.9160 C.3   168  ILE168      0.1561
     81  C         33.7970   25.1870    7.0210 C.2   168  ILE168      0.2260
     82  O         34.2790   26.0850    6.3370 O.2   168  ILE168     -0.2867
     83  CB        33.5880   23.0030    5.7920 C.3   168  ILE168      0.0252
     84  CG1       34.3500   21.7150    5.4820 C.3   168  ILE168      0.0019
     85  CG2       33.4600   23.8760    4.5480 C.3   168  ILE168      0.0019
     86  CD1       33.6850   20.8240    4.4500 C.3   168  ILE168      0.0001
     87  N         36.6540   28.3770    8.1290 N.3   171  PRO171     -0.2102
     88  CA        37.4440   29.1450    7.1570 C.3   171  PRO171      0.1504
     89  C         36.5570   30.0160    6.2560 C.2   171  PRO171      0.2575
     90  O         37.0060   31.0170    5.6910 O.2   171  PRO171     -0.2718
     91  CB        38.2050   28.0620    6.3810 C.3   171  PRO171      0.0282
     92  CG        37.3840   26.8240    6.5730 C.3   171  PRO171      0.0208
     93  CD        36.9120   26.9340    7.9980 C.3   171  PRO171      0.0893
     94  N         35.2940   29.6280    6.1240 N.am  172  ILE172     -0.1980
     95  CA        34.3560   30.3920    5.3080 C.3   172  ILE172      0.1595
     96  C         33.9790   31.7080    5.9960 C.2   172  ILE172      0.2287
     97  O         34.0520   32.7760    5.3900 O.2   172  ILE172     -0.2864
     98  CB        33.0740   29.5820    5.0250 C.3   172  ILE172      0.0276
     99  CG1       33.4220   28.3500    4.1890 C.3   172  ILE172      0.0022
    100  CG2       32.0520   30.4470    4.2730 C.3   172  ILE172      0.0022
    101  CD1       32.2430   27.4340    3.9320 C.3   172  ILE172      0.0001
    102  N         37.0260   34.1540    6.0570 N.3   175  ILE175     -0.1245
    103  CA        37.3100   34.8320    4.7930 C.3   175  ILE175      0.1561
    104  C         36.2580   35.8410    4.3420 C.2   175  ILE175      0.2260
    105  O         36.5850   36.8050    3.6470 O.2   175  ILE175     -0.2867
    106  CB        37.5550   33.8150    3.6480 C.3   175  ILE175      0.0252
    107  CG1       38.3040   34.4880    2.4910 C.3   175  ILE175      0.0019
    108  CG2       36.2230   33.2710    3.1150 C.3   175  ILE175      0.0019
    109  CD1       39.6770   34.9350    2.8200 C.3   175  ILE175      0.0001
@<TRIPOS>BOND
     1    37    36    1
     2    38    36    1
     3    36    35    1
     4    18    17    1
     5   107   109    1
     6   107   106    1
     7    35    32    1
     8    10     8   ar
     9    10    11   ar
    10     8     6   ar
    11   108   106    1
    12    17    19    1
    13    17    14    1
    14   105   104    2
    15   106   103    1
    16    12    11    1
    17   101    99    1
    18    11     9   ar
    19    70    69    1
    20    15    16    2
    21    15    14    1
    22    32    33    1
    23    32    31    1
    24    99    98    1
    25     6     5    1
    26     6     7   ar
    27   100    98    1
    28     3     4    2
    29     3     2    1
    30   104   103    1
    31    34    33    2
    32     5     2    1
    33    86    84    1
    34    85    83    1
    35    14    13    1
    36   103   102    1
    37    71    69    1
    38    98    95    1
    39    45    44    1
    40    69    68    2
    41     1     2    1
    42    31    22   am
    43     9     7   ar
    44    50    49    2
    45    57    59   ar
    46    57    54   ar
    47    51    52    1
    48    51    48    1
    49    95    96    1
    50    95    94    1
    51    59    60   ar
    52    97    96    2
    53    84    83    1
    54    54    52   ar
    55    54    56   ar
    56    43    44    1
    57    43    40    1
    58    52    53   ar
    59    90    89    2
    60    60    58   ar
    61    83    80    1
    62    49    48    1
    63    56    58   ar
    64    56    55   ar
    65    53    55   ar
    66    41    42    2
    67    41    40    1
    68    94    89   am
    69    44    46    1
    70    68    67    1
    71    89    88    1
    72    78    76    1
    73    27    29   ar
    74    27    25   ar
    75    82    81    2
    76    91    92    1
    77    91    88    1
    78    22    23    2
    79    22    21    1
    80    48    47    1
    81    67    66    1
    82    29    30   ar
    83    92    93    1
    84    40    39    1
    85    80    81    1
    86    80    79    1
    87    20    21    1
    88    88    87    1
    89    24    25    1
    90    24    21    1
    91    25    26   ar
    92    30    28   ar
    93    76    77    1
    94    76    73    1
    95    66    65    1
    96    75    74    2
    97    93    87    1
    98    65    62    1
    99    74    73    1
   100    26    28   ar
   101    73    72    1
   102    63    62    1
   103    63    64    2
   104    62    61    1
