@<TRIPOS>MOLECULE
tmp/1xioA08.pdb
 88 82 0 0 0
SMALL
GASTEIGER

@<TRIPOS>ATOM
      1  N         48.8390    8.4270   15.4640 N.3    92  LEU92      -0.1245
      2  CA        47.8440    9.0010   14.5540 C.3    92  LEU92       0.1561
      3  C         47.1500   10.1700   15.2520 C.2    92  LEU92       0.2260
      4  O         46.8970   11.2090   14.6460 O.2    92  LEU92      -0.2867
      5  CB        46.8070    7.9380   14.1670 C.3    92  LEU92       0.0270
      6  CG        45.5960    8.3580   13.3250 C.3    92  LEU92       0.0019
      7  CD1       46.0540    9.0130   12.0160 C.3    92  LEU92       0.0001
      8  CD2       44.7450    7.1250   13.0280 C.3    92  LEU92       0.0001
      9  N         49.4600   13.1540   15.3300 N.3    95  PHE95      -0.1241
     10  CA        49.5620   13.7430   14.0060 C.3    95  PHE95       0.1605
     11  C         48.3890   14.6800   13.7710 C.2    95  PHE95       0.2264
     12  O         48.5690   15.8370   13.3970 O.2    95  PHE95      -0.2867
     13  CB        49.5580   12.6490   12.9410 C.3    95  PHE95       0.0534
     14  CG        49.4410   13.1720   11.5390 C.ar   95  PHE95      -0.0203
     15  CD1       50.4020   14.0320   11.0230 C.ar   95  PHE95      -0.0042
     16  CD2       48.3770   12.7890   10.7270 C.ar   95  PHE95      -0.0042
     17  CE1       50.3100   14.5040    9.7240 C.ar   95  PHE95      -0.0003
     18  CE2       48.2730   13.2530    9.4240 C.ar   95  PHE95      -0.0003
     19  CZ        49.2440   14.1130    8.9190 C.ar   95  PHE95      -0.0000
     20  N         48.7560   18.7360   13.6060 N.3    99  THR99      -0.1218
     21  CA        48.4020   19.3230   12.3210 C.3    99  THR99       0.1862
     22  C         47.2770   20.3570   12.4970 C.2    99  THR99       0.2287
     23  O         47.3020   21.4080   11.8530 O.2    99  THR99      -0.2866
     24  CB        47.9810   18.2460   11.3070 C.3    99  THR99       0.1770
     25  OG1       49.0770   17.3390   11.1020 O.3    99  THR99      -0.2211
     26  CG2       47.6140   18.8980    9.9690 C.3    99  THR99       0.0375
     27  N         48.4980   23.6220   13.6840 N.3   102  VAL102     -0.1245
     28  CA        49.1080   24.3710   12.5910 C.3   102  VAL102      0.1561
     29  C         48.0180   25.1760   11.8800 C.2   102  VAL102      0.2260
     30  O         48.2560   26.2880   11.4170 O.2   102  VAL102     -0.2867
     31  CB        49.7940   23.4230   11.5720 C.3   102  VAL102      0.0252
     32  CG1       50.2630   24.2210   10.3420 C.3   102  VAL102      0.0019
     33  CG2       51.0000   22.7390   12.2270 C.3   102  VAL102      0.0019
     34  N         47.7850   28.4290    3.6820 N.3   125  CYS125     -0.1235
     35  CA        48.5660   27.4330    4.4030 C.3   125  CYS125      0.1677
     36  C         47.6450   26.7210    5.3990 C.2   125  CYS125      0.2270
     37  O         47.6670   25.4960    5.5090 O.2   125  CYS125     -0.2867
     38  CB        49.7390   28.1010    5.1330 C.3   125  CYS125      0.0956
     39  SG        50.7760   26.9660    6.1230 S.3   125  CYS125     -0.0801
     40  N         45.3200   24.3000    3.7060 N.3   128  CYS128     -0.1221
     41  CA        46.0230   23.0800    3.3180 C.3   128  CYS128      0.1808
     42  C         46.1700   22.1380    4.5200 C.2   128  CYS128      0.2601
     43  O         45.9550   20.9380    4.4000 O.2   128  CYS128     -0.2717
     44  CB        47.4050   23.4060    2.7310 C.3   128  CYS128      0.0970
     45  SG        47.3440   24.2300    1.1120 S.3   128  CYS128     -0.0800
     46  N         46.5280   22.6770    5.6800 N.am  129  ALA129     -0.1979
     47  CA        46.6780   21.8360    6.8620 C.3   129  ALA129      0.1597
     48  C         45.3030   21.2790    7.2260 C.2   129  ALA129      0.2287
     49  O         45.1790   20.1520    7.7000 O.2   129  ALA129     -0.2864
     50  CB        47.2550   22.6540    8.0430 C.3   129  ALA129      0.0319
     51  N         44.4350   18.3640    5.1830 N.3   132  ILE132     -0.1245
     52  CA        45.1430   17.1750    5.6500 C.3   132  ILE132      0.1561
     53  C         44.3280   16.5780    6.7860 C.2   132  ILE132      0.2260
     54  O         44.2100   15.3580    6.9090 O.2   132  ILE132     -0.2867
     55  CB        46.5750   17.5120    6.1560 C.3   132  ILE132      0.0252
     56  CG1       47.4310   18.0070    4.9830 C.3   132  ILE132      0.0019
     57  CG2       47.2320   16.2770    6.7790 C.3   132  ILE132      0.0019
     58  CD1       48.8570   18.3780    5.3630 C.3   132  ILE132      0.0001
     59  N         41.3700   14.7960    5.3480 N.3   135  TRP135     -0.1241
     60  CA        41.8250   13.5450    4.7520 C.3   135  TRP135      0.1605
     61  C         42.0100   12.5080    5.8600 C.2   135  TRP135      0.2264
     62  O         41.5840   11.3610    5.7330 O.2   135  TRP135     -0.2867
     63  CB        43.1570   13.7430    4.0230 C.3   135  TRP135      0.0550
     64  CG        43.7510   12.4540    3.5570 C.ar  135  TRP135      0.0003
     65  CD1       43.4020   11.7450    2.4410 C.ar  135  TRP135      0.0946
     66  CD2       44.7200   11.6600    4.2490 C.ar  135  TRP135      0.0152
     67  NE1       44.0870   10.5560    2.4000 N.ar  135  TRP135     -0.2442
     68  CE2       44.9010   10.4750    3.4980 C.ar  135  TRP135      0.0810
     69  CE3       45.4480   11.8310    5.4340 C.ar  135  TRP135      0.0012
     70  CZ2       45.7830    9.4640    3.8960 C.ar  135  TRP135      0.0191
     71  CZ3       46.3250   10.8260    5.8300 C.ar  135  TRP135      0.0001
     72  CH2       46.4840    9.6550    5.0610 C.ar  135  TRP135      0.0015
     73  N         42.5280    7.2980    7.2480 N.3   140  PRO140     -0.2116
     74  CA        43.1520    6.4600    8.2810 C.3   140  PRO140      0.1372
     75  C         42.3130    6.2930    9.5480 C.2   140  PRO140      0.2244
     76  O         42.2490    5.2040   10.1270 O.2   140  PRO140     -0.2868
     77  CB        44.4820    7.1620    8.5420 C.3   140  PRO140      0.0268
     78  CG        44.1810    8.5910    8.2420 C.3   140  PRO140      0.0207
     79  CD        43.3260    8.5160    7.0070 C.3   140  PRO140      0.0892
     80  N         39.9560    2.7120   10.8010 N.3   144  LYS144     -0.1245
     81  CA        40.0190    2.0740   12.1140 C.3   144  LYS144      0.1561
     82  C         38.6680    1.4630   12.4820 C.2   144  LYS144      0.2260
     83  O         38.6120    0.3630   13.0300 O.2   144  LYS144     -0.2867
     84  CB        40.4070    3.0910   13.1970 C.3   144  LYS144      0.0271
     85  CG        41.8310    3.6040   13.1250 C.3   144  LYS144      0.0035
     86  CD        42.8340    2.5150   13.4640 C.3   144  LYS144      0.0206
     87  CE        44.2540    3.0590   13.4700 C.3   144  LYS144      0.1093
     88  NZ        45.2120    2.0410   13.9740 N.3   144  LYS144     -0.1314
@<TRIPOS>BOND
     1    45    44    1
     2    67    65   ar
     3    67    68   ar
     4    65    64   ar
     5    44    41    1
     6    41    40    1
     7    41    42    1
     8    68    70   ar
     9    68    66   ar
    10    64    63    1
    11    64    66   ar
    12    34    35    1
    13    70    72   ar
    14    63    60    1
    15    66    69   ar
    16    43    42    2
    17    35    38    1
    18    35    36    1
    19    42    46   am
    20    60    59    1
    21    60    61    1
    22    56    58    1
    23    56    55    1
    24    72    71   ar
    25    38    39    1
    26    51    52    1
    27    36    37    2
    28    69    71   ar
    29    52    55    1
    30    52    53    1
    31    46    47    1
    32    62    61    2
    33    55    57    1
    34    53    54    2
    35    47    48    1
    36    47    50    1
    37    79    73    1
    38    79    78    1
    39    48    49    2
    40    73    74    1
    41    78    77    1
    42    74    77    1
    43    74    75    1
    44    19    18   ar
    45    19    17   ar
    46    18    16   ar
    47    75    76    2
    48    17    15   ar
    49    26    24    1
    50    32    31    1
    51    16    14   ar
    52    80    81    1
    53    15    14   ar
    54    25    24    1
    55    24    21    1
    56    30    29    2
    57    14    13    1
    58    31    33    1
    59    31    28    1
    60    23    22    2
    61    29    28    1
    62     7     6    1
    63    81    82    1
    64    81    84    1
    65    21    22    1
    66    21    20    1
    67    82    83    2
    68    28    27    1
    69    13    10    1
    70     8     6    1
    71    85    84    1
    72    85    86    1
    73     6     5    1
    74    12    11    2
    75    86    87    1
    76    87    88    1
    77    11    10    1
    78    10     9    1
    79     5     2    1
    80     2     3    1
    81     2     1    1
    82     4     3    2
