@<TRIPOS>MOLECULE
tmp/1xioA03.pdb
 114 112 0 0 0
SMALL
GASTEIGER

@<TRIPOS>ATOM
      1  N         25.7320   34.7410   26.2110 N.3    10  ILE10      -0.1245
      2  CA        24.7910   33.6700   25.8930 C.3    10  ILE10       0.1561
      3  C         25.6020   32.4400   25.5170 C.2    10  ILE10       0.2260
      4  O         25.2460   31.3110   25.8710 O.2    10  ILE10      -0.2867
      5  CB        23.8580   34.0610   24.7220 C.3    10  ILE10       0.0252
      6  CG1       22.9230   35.1920   25.1750 C.3    10  ILE10       0.0019
      7  CG2       23.0290   32.8510   24.2700 C.3    10  ILE10       0.0019
      8  CD1       22.0750   35.7700   24.0600 C.3    10  ILE10       0.0001
      9  N         26.7900   30.8190   28.5550 N.3    13  ALA13      -0.1231
     10  CA        25.7000   30.1000   29.2020 C.3    13  ALA13       0.1694
     11  C         25.5600   28.7350   28.5280 C.2    13  ALA13       0.2592
     12  O         25.4160   27.7040   29.1960 O.2    13  ALA13      -0.2718
     13  CB        24.3970   30.8920   29.0800 C.3    13  ALA13       0.0304
     14  N         25.6070   28.7390   27.2000 N.am   14  GLY14      -0.1957
     15  CA        25.5160   27.5020   26.4460 C.3    14  GLY14       0.1869
     16  C         26.6180   26.5310   26.8280 C.2    14  GLY14       0.2309
     17  O         26.3500   25.3530   27.0670 O.2    14  GLY14      -0.2863
     18  N         25.9570   25.0060   30.3640 N.3    17  ILE17      -0.1231
     19  CA        24.9160   23.9960   30.3700 C.3    17  ILE17       0.1692
     20  C         25.4800   22.7160   29.7580 C.2    17  ILE17       0.2592
     21  O         25.2750   21.6170   30.2810 O.2    17  ILE17      -0.2718
     22  CB        23.6900   24.4880   29.5780 C.3    17  ILE17       0.0266
     23  CG1       23.0550   25.6680   30.3320 C.3    17  ILE17       0.0019
     24  CG2       22.6950   23.3520   29.3740 C.3    17  ILE17       0.0020
     25  CD1       21.9490   26.4010   29.5680 C.3    17  ILE17       0.0001
     26  N         26.2060   22.8620   28.6550 N.am   18  GLY18      -0.1957
     27  CA        26.7980   21.7030   28.0080 C.3    18  GLY18       0.1869
     28  C         27.7380   20.9720   28.9540 C.2    18  GLY18       0.2309
     29  O         27.6510   19.7540   29.1140 O.2    18  GLY18      -0.2863
     30  N         25.9710   19.1040   31.6700 N.3    21  HIS21      -0.1226
     31  CA        25.3250   17.9080   31.1430 C.3    21  HIS21       0.1752
     32  C         26.3190   16.7530   30.9880 C.2    21  HIS21       0.2596
     33  O         26.0310   15.6280   31.3970 O.2    21  HIS21      -0.2718
     34  CB        24.6530   18.2080   29.7930 C.3    21  HIS21       0.0759
     35  CG        24.0620   17.0020   29.1280 C.ar   21  HIS21       0.0818
     36  ND1       23.0990   16.2160   29.7230 N.ar   21  HIS21      -0.2268
     37  CD2       24.2650   16.4750   27.8950 C.ar   21  HIS21       0.1154
     38  CE1       22.7290   15.2610   28.8870 C.ar   21  HIS21       0.1986
     39  NE2       23.4220   15.3970   27.7700 N.ar   21  HIS21      -0.2212
     40  N         27.4870   17.0200   30.4070 N.am   22  PHE22      -0.1976
     41  CA        28.4740   15.9570   30.2250 C.3    22  PHE22       0.1639
     42  C         28.9580   15.4590   31.5880 C.2    22  PHE22       0.2290
     43  O         29.2450   14.2760   31.7630 O.2    22  PHE22      -0.2864
     44  CB        29.6640   16.4410   29.3800 C.3    22  PHE22       0.0560
     45  CG        29.2690   17.0690   28.0650 C.ar   22  PHE22      -0.0200
     46  CD1       28.2010   16.5650   27.3220 C.ar   22  PHE22      -0.0042
     47  CD2       29.9600   18.1740   27.5770 C.ar   22  PHE22      -0.0042
     48  CE1       27.8300   17.1530   26.1120 C.ar   22  PHE22      -0.0003
     49  CE2       29.6010   18.7700   26.3680 C.ar   22  PHE22      -0.0003
     50  CZ        28.5300   18.2630   25.6350 C.ar   22  PHE22      -0.0000
     51  N         29.0460   15.2300   10.4970 N.3   162  TYR162     -0.1241
     52  CA        28.6170   16.3880   11.2700 C.3   162  TYR162      0.1605
     53  C         29.8570   17.2330   11.5800 C.2   162  TYR162      0.2264
     54  O         29.8480   18.4600   11.4810 O.2   162  TYR162     -0.2867
     55  CB        27.9850   15.8950   12.5680 C.3   162  TYR162      0.0534
     56  CG        27.5280   16.9860   13.4960 C.ar  162  TYR162     -0.0201
     57  CD1       26.2200   17.4760   13.4450 C.ar  162  TYR162     -0.0009
     58  CD2       28.3990   17.5230   14.4430 C.ar  162  TYR162     -0.0009
     59  CE1       25.7970   18.4710   14.3200 C.ar  162  TYR162      0.0417
     60  CE2       27.9860   18.5140   15.3150 C.ar  162  TYR162      0.0417
     61  CZ        26.6880   18.9800   15.2510 C.ar  162  TYR162      0.1957
     62  OH        26.2780   19.9480   16.1280 O.3   162  TYR162     -0.2866
     63  N         29.2750   26.6710   19.1470 N.3   198  PHE198     -0.1227
     64  CA        28.3500   26.0010   20.0510 C.3   198  PHE198      0.1736
     65  C         28.0110   24.6130   19.5370 C.2   198  PHE198      0.2595
     66  O         27.9810   23.6470   20.2990 O.2   198  PHE198     -0.2718
     67  CB        27.0500   26.7890   20.2280 C.3   198  PHE198      0.0547
     68  CG        26.0020   26.0320   21.0050 C.ar  198  PHE198     -0.0202
     69  CD1       26.0780   25.9320   22.3910 C.ar  198  PHE198     -0.0042
     70  CD2       24.9810   25.3620   20.3430 C.ar  198  PHE198     -0.0042
     71  CE1       25.1480   25.1670   23.1130 C.ar  198  PHE198     -0.0003
     72  CE2       24.0450   24.5940   21.0480 C.ar  198  PHE198     -0.0003
     73  CZ        24.1330   24.4980   22.4360 C.ar  198  PHE198     -0.0000
     74  N         27.7380   24.5080   18.2430 N.am  199  PHE199     -0.1976
     75  CA        27.4020   23.2110   17.6640 C.3   199  PHE199      0.1639
     76  C         28.6190   22.3050   17.5110 C.2   199  PHE199      0.2290
     77  O         28.4950   21.0790   17.5580 O.2   199  PHE199     -0.2864
     78  CB        26.7200   23.4060   16.3140 C.3   199  PHE199      0.0560
     79  CG        25.3130   23.8900   16.4330 C.ar  199  PHE199     -0.0200
     80  CD1       24.3000   23.0230   16.8250 C.ar  199  PHE199     -0.0042
     81  CD2       25.0060   25.2240   16.2120 C.ar  199  PHE199     -0.0042
     82  CE1       22.9960   23.4790   17.0000 C.ar  199  PHE199     -0.0003
     83  CE2       23.7080   25.6950   16.3830 C.ar  199  PHE199     -0.0003
     84  CZ        22.7010   24.8180   16.7790 C.ar  199  PHE199     -0.0000
     85  N         29.7310   21.8270   22.1470 N.3   202  VAL202     -0.1231
     86  CA        28.6530   21.1510   22.8450 C.3   202  VAL202      0.1692
     87  C         27.8490   20.2270   21.9310 C.2   202  VAL202      0.2592
     88  O         27.5630   19.0900   22.2960 O.2   202  VAL202     -0.2718
     89  CB        27.7080   22.1770   23.5040 C.3   202  VAL202      0.0266
     90  CG1       26.4910   21.4700   24.0860 C.3   202  VAL202      0.0020
     91  CG2       28.4560   22.9250   24.6090 C.3   202  VAL202      0.0020
     92  N         27.4890   20.7190   20.7470 N.am  203  GLY203     -0.1957
     93  CA        26.7230   19.9120   19.8120 C.3   203  GLY203      0.1869
     94  C         27.3900   18.5940   19.4420 C.2   203  GLY203      0.2309
     95  O         26.7720   17.5290   19.5240 O.2   203  GLY203     -0.2863
     96  N         27.6860   16.1590   22.4140 N.3   206  PHE206     -0.1227
     97  CA        26.3740   15.6620   22.7950 C.3   206  PHE206      0.1736
     98  C         26.0910   14.4250   21.9460 C.2   206  PHE206      0.2595
     99  O         25.7660   13.3570   22.4650 O.2   206  PHE206     -0.2718
    100  CB        25.3090   16.7250   22.5140 C.3   206  PHE206      0.0547
    101  CG        23.9200   16.3150   22.9120 C.ar  206  PHE206     -0.0202
    102  CD1       23.4620   16.5300   24.2060 C.ar  206  PHE206     -0.0042
    103  CD2       23.0690   15.7160   21.9890 C.ar  206  PHE206     -0.0042
    104  CE1       22.1710   16.1540   24.5770 C.ar  206  PHE206     -0.0003
    105  CE2       21.7760   15.3340   22.3490 C.ar  206  PHE206     -0.0003
    106  CZ        21.3260   15.5540   23.6430 C.ar  206  PHE206     -0.0000
    107  N         26.2260   14.5800   20.6320 N.am  207  LEU207     -0.1980
    108  CA        25.9830   13.4800   19.6920 C.3   207  LEU207      0.1596
    109  C         26.9810   12.3400   19.8610 C.2   207  LEU207      0.2287
    110  O         26.6420   11.1700   19.6790 O.2   207  LEU207     -0.2864
    111  CB        26.0580   13.9920   18.2540 C.3   207  LEU207      0.0297
    112  CG        24.9690   14.9920   17.8390 C.3   207  LEU207      0.0022
    113  CD1       25.2640   15.5240   16.4410 C.3   207  LEU207      0.0001
    114  CD2       23.6090   14.3050   17.8820 C.3   207  LEU207      0.0001
@<TRIPOS>BOND
     1    51    52    1
     2    52    53    1
     3    52    55    1
     4    54    53    2
     5    55    56    1
     6    57    56   ar
     7    57    59   ar
     8    56    58   ar
     9    59    61   ar
    10    58    60   ar
    11    61    60   ar
    12    61    62    1
    13    81    83   ar
    14    81    79   ar
    15    78    79    1
    16    78    75    1
    17    83    84   ar
    18    79    80   ar
    19   113   112    1
    20    84    82   ar
    21    80    82   ar
    22    76    77    2
    23    76    75    1
    24    75    74    1
    25   112   114    1
    26   112   111    1
    27    74    65   am
    28   111   108    1
    29    63    64    1
    30    94    95    2
    31    94    93    1
    32    65    64    1
    33    65    66    2
    34   110   109    2
    35   108   109    1
    36   108   107    1
    37    93    92    1
    38    64    67    1
    39    67    68    1
    40    70    68   ar
    41    70    72   ar
    42   107    98   am
    43    92    87   am
    44    68    69   ar
    45    72    73   ar
    46    87    88    2
    47    87    86    1
    48    98    99    2
    49    98    97    1
    50   103   105   ar
    51   103   101   ar
    52    85    86    1
    53   105   106   ar
    54    69    71   ar
    55    96    97    1
    56    73    71   ar
    57   100    97    1
    58   100   101    1
    59    86    89    1
    60   101   102   ar
    61    89    90    1
    62    89    91    1
    63   106   104   ar
    64     8     6    1
    65   102   104   ar
    66     7     5    1
    67     5     6    1
    68     5     2    1
    69     3     4    2
    70     3     2    1
    71    50    48   ar
    72    50    49   ar
    73     2     1    1
    74    48    46   ar
    75    49    47   ar
    76    15    16    1
    77    15    14    1
    78    16    17    2
    79    14    11   am
    80    46    45   ar
    81    47    45   ar
    82    39    37   ar
    83    39    38   ar
    84    37    35   ar
    85    27    26    1
    86    27    28    1
    87    45    44    1
    88    11    12    2
    89    11    10    1
    90     9    10    1
    91    26    20   am
    92    38    36   ar
    93    28    29    2
    94    13    10    1
    95    35    36   ar
    96    35    34    1
    97    24    22    1
    98    44    41    1
    99    25    23    1
   100    22    23    1
   101    22    19    1
   102    20    21    2
   103    20    19    1
   104    34    31    1
   105    41    40    1
   106    41    42    1
   107    18    19    1
   108    40    32   am
   109    32    31    1
   110    32    33    2
   111    31    30    1
   112    42    43    2
