@<TRIPOS>MOLECULE
tmp/1xioA10.pdb
 120 112 0 0 0
SMALL
GASTEIGER

@<TRIPOS>ATOM
      1  N         28.5590   31.7210   26.6330 N.3    12  VAL12      -0.1245
      2  CA        29.1000   31.2150   27.8920 C.3    12  VAL12       0.1561
      3  C         28.0450   30.3850   28.6320 C.2    12  VAL12       0.2260
      4  O         28.3660   29.3730   29.2610 O.2    12  VAL12      -0.2867
      5  CB        29.5820   32.3670   28.8030 C.3    12  VAL12       0.0252
      6  CG1       30.0020   31.8200   30.1700 C.3    12  VAL12       0.0019
      7  CG2       30.7780   33.0780   28.1490 C.3    12  VAL12       0.0019
      8  N         27.8610   27.0080   26.8840 N.3    15  MET15      -0.1230
      9  CA        28.9870   26.1490   27.2600 C.3    15  MET15       0.1702
     10  C         28.7730   25.5620   28.6560 C.2    15  MET15       0.2593
     11  O         29.0180   24.3800   28.8860 O.2    15  MET15      -0.2718
     12  CB        30.3050   26.9400   27.2680 C.3    15  MET15       0.0401
     13  CG        30.7670   27.4720   25.9230 C.3    15  MET15       0.0596
     14  SD        31.1100   26.1630   24.7320 S.3    15  MET15      -0.1393
     15  CE        29.6230   26.2310   23.7060 C.3    15  MET15       0.0692
     16  N         28.3170   26.4000   29.5830 N.am   16  THR16      -0.1953
     17  CA        28.0900   25.9750   30.9640 C.3    16  THR16       0.1897
     18  C         27.0710   24.8460   31.0640 C.2    16  THR16       0.2313
     19  O         27.2840   23.8630   31.7690 O.2    16  THR16      -0.2863
     20  CB        27.6010   27.1450   31.8340 C.3    16  THR16       0.1794
     21  OG1       28.5760   28.1950   31.8140 O.3    16  THR16      -0.2208
     22  CG2       27.3760   26.6820   33.2700 C.3    16  THR16       0.0378
     23  N         28.6370   21.7160   29.5940 N.3    19  ALA19      -0.1231
     24  CA        29.5960   21.1230   30.5210 C.3    19  ALA19       0.1694
     25  C         28.8900   20.3860   31.6630 C.2    19  ALA19       0.2591
     26  O         29.2490   19.2560   32.0050 O.2    19  ALA19      -0.2718
     27  CB        30.5210   22.1990   31.0740 C.3    19  ALA19       0.0304
     28  N         27.8850   21.0290   32.2490 N.am   20  LEU20      -0.1980
     29  CA        27.1320   20.4270   33.3450 C.3    20  LEU20       0.1596
     30  C         26.4700   19.1210   32.9020 C.2    20  LEU20       0.2287
     31  O         26.4110   18.1450   33.6600 O.2    20  LEU20      -0.2864
     32  CB        26.0650   21.4020   33.8480 C.3    20  LEU20       0.0297
     33  CG        26.6150   22.6740   34.5090 C.3    20  LEU20       0.0022
     34  CD1       25.4930   23.6680   34.7390 C.3    20  LEU20       0.0001
     35  CD2       27.2930   22.3140   35.8240 C.3    20  LEU20       0.0001
     36  N         29.0340   16.3640   32.5550 N.3    23  TRP23      -0.1241
     37  CA        29.4600   15.9960   33.8960 C.3    23  TRP23       0.1605
     38  C         28.4190   15.0470   34.4940 C.2    23  TRP23       0.2264
     39  O         28.7630   14.0370   35.1110 O.2    23  TRP23      -0.2867
     40  CB        29.6080   17.2570   34.7450 C.3    23  TRP23       0.0550
     41  CG        29.9710   17.0100   36.1720 C.ar   23  TRP23       0.0003
     42  CD1       30.6610   15.9380   36.6860 C.ar   23  TRP23       0.0946
     43  CD2       29.7280   17.8930   37.2700 C.ar   23  TRP23       0.0152
     44  NE1       30.8610   16.1120   38.0360 N.ar   23  TRP23      -0.2442
     45  CE2       30.3000   17.3050   38.4190 C.ar   23  TRP23       0.0810
     46  CE3       29.0870   19.1350   37.3930 C.ar   23  TRP23       0.0012
     47  CZ2       30.2460   17.9140   39.6810 C.ar   23  TRP23       0.0191
     48  CZ3       29.0320   19.7440   38.6470 C.ar   23  TRP23       0.0001
     49  CH2       29.6120   19.1310   39.7740 C.ar   23  TRP23       0.0015
     50  N         28.5770   10.6090   35.5420 N.3    27  ARG27      -0.1245
     51  CA        28.2090    9.9510   36.7960 C.3    27  ARG27       0.1563
     52  C         27.5130    8.6080   36.5410 C.2    27  ARG27       0.2260
     53  O         27.4790    7.7390   37.4130 O.2    27  ARG27      -0.2867
     54  CB        27.3010   10.8560   37.6310 C.3    27  ARG27       0.0307
     55  CG        27.9430   12.1640   38.0770 C.3    27  ARG27       0.0489
     56  CD        29.1350   11.9360   38.9980 C.3    27  ARG27       0.2205
     57  NE        30.3370   11.5540   38.2670 N.pl3  27  ARG27      -0.0865
     58  CZ        31.4760   11.1820   38.8440 C.cat  27  ARG27       0.5346
     59  NH1       31.5680   11.1380   40.1690 N.pl3  27  ARG27       0.1354
     60  NH2       32.5280   10.8640   38.0980 N.pl3  27  ARG27       0.1354
     61  N         35.8410    7.3160   31.4050 N.3    34  GLN34      -0.1245
     62  CA        35.8950    8.6630   31.9520 C.3    34  GLN34       0.1566
     63  C         36.7390    9.6580   31.1560 C.2    34  GLN34       0.2260
     64  O         36.4000   10.8420   31.0950 O.2    34  GLN34      -0.2867
     65  CB        36.3930    8.6270   33.4010 C.3    34  GLN34       0.0367
     66  CG        35.3630    8.0980   34.3930 C.3    34  GLN34       0.0905
     67  CD        34.0640    8.9010   34.3560 C.2    34  GLN34       0.2608
     68  OE1       34.0870   10.1360   34.3570 O.2    34  GLN34      -0.2717
     69  NE2       32.9290    8.2040   34.3260 N.am   34  GLN34      -0.0878
     70  N         35.7800   13.4790   30.3960 N.3    38  LEU38      -0.1245
     71  CA        36.6070   14.5920   30.8810 C.3    38  LEU38       0.1561
     72  C         36.9900   15.5670   29.7720 C.2    38  LEU38       0.2260
     73  O         36.9930   16.7840   29.9720 O.2    38  LEU38      -0.2867
     74  CB        37.8730   14.0580   31.5710 C.3    38  LEU38       0.0270
     75  CG        37.6410   13.3200   32.9060 C.3    38  LEU38       0.0019
     76  CD1       38.9470   12.7220   33.4220 C.3    38  LEU38       0.0001
     77  CD2       37.0740   14.3030   33.9310 C.3    38  LEU38       0.0001
     78  N         34.0500   17.5690   28.8070 N.3    41  MET41      -0.1245
     79  CA        33.7790   18.6250   29.7790 C.3    41  MET41       0.1570
     80  C         34.7550   19.7860   29.6550 C.2    41  MET41       0.2261
     81  O         34.3500   20.9450   29.7050 O.2    41  MET41      -0.2867
     82  CB        33.8590   18.0840   31.2060 C.3    41  MET41       0.0387
     83  CG        32.6270   17.3390   31.6770 C.3    41  MET41       0.0595
     84  SD        32.9190   16.5860   33.3030 S.3    41  MET41      -0.1393
     85  CE        33.3730   14.9760   32.7960 C.3    41  MET41       0.0692
     86  N         34.1910   22.7220   26.4820 N.3    44  PRO44      -0.2102
     87  CA        33.2840   23.8600   26.6780 C.3    44  PRO44       0.1504
     88  C         33.7050   24.7850   27.8260 C.2    44  PRO44       0.2575
     89  O         33.3990   25.9770   27.8200 O.2    44  PRO44      -0.2718
     90  CB        31.9310   23.1880   26.9210 C.3    44  PRO44       0.0282
     91  CG        32.3030   21.8790   27.5400 C.3    44  PRO44       0.0208
     92  CD        33.4910   21.4460   26.7210 C.3    44  PRO44       0.0893
     93  N         34.4130   24.2360   28.8060 N.am   45  ILE45      -0.1980
     94  CA        34.8790   25.0410   29.9310 C.3    45  ILE45       0.1595
     95  C         35.9610   26.0010   29.4530 C.2    45  ILE45       0.2287
     96  O         35.9320   27.1960   29.7670 O.2    45  ILE45      -0.2864
     97  CB        35.4400   24.1500   31.0600 C.3    45  ILE45       0.0276
     98  CG1       34.2830   23.3920   31.7240 C.3    45  ILE45       0.0022
     99  CG2       36.2090   24.9970   32.0850 C.3    45  ILE45       0.0022
    100  CD1       34.7190   22.3960   32.7890 C.3    45  ILE45       0.0001
    101  N         34.3170   28.4770   27.1240 N.3    48  GLY48      -0.1210
    102  CA        33.4980   29.4080   27.8830 C.3    48  GLY48       0.1956
    103  C         34.3320   30.4530   28.6070 C.2    48  GLY48       0.2611
    104  O         33.9470   31.6250   28.6970 O.2    48  GLY48      -0.2717
    105  N         35.4780   30.0360   29.1370 N.am   49  LEU49      -0.1979
    106  CA        36.3610   30.9660   29.8430 C.3    49  LEU49       0.1596
    107  C         36.9110   31.9880   28.8520 C.2    49  LEU49       0.2287
    108  O         36.9820   33.1800   29.1490 O.2    49  LEU49      -0.2864
    109  CB        37.5190   30.2130   30.5060 C.3    49  LEU49       0.0297
    110  CG        37.1200   29.2900   31.6680 C.3    49  LEU49       0.0022
    111  CD1       38.3110   28.4500   32.0990 C.3    49  LEU49       0.0001
    112  CD2       36.6050   30.1330   32.8390 C.3    49  LEU49       0.0001
    113  N         34.1880   34.3480   27.9850 N.3    52  MET52      -0.1245
    114  CA        33.8510   35.1700   29.1380 C.3    52  MET52       0.1570
    115  C         34.8360   36.3340   29.1790 C.2    52  MET52       0.2261
    116  O         34.4780   37.4630   29.5340 O.2    52  MET52      -0.2867
    117  CB        33.9510   34.3560   30.4290 C.3    52  MET52       0.0387
    118  CG        33.6790   35.1590   31.6920 C.3    52  MET52       0.0595
    119  SD        33.5820   34.1310   33.1830 S.3    52  MET52      -0.1393
    120  CE        35.2840   34.1330   33.6820 C.3    52  MET52       0.0692
@<TRIPOS>BOND
     1    15    14    1
     2    14    13    1
     3    13    12    1
     4    86    87    1
     5    86    92    1
     6     1     2    1
     7    87    90    1
     8    87    88    1
     9    92    91    1
    10     8     9    1
    11    90    91    1
    12   101   102    1
    13     9    12    1
    14     9    10    1
    15    89    88    2
    16    88    93   am
    17   102   103    1
    18     2     3    1
    19     2     5    1
    20   113   114    1
    21     7     5    1
    22   103   104    2
    23   103   105   am
    24     3     4    2
    25    10    11    2
    26    10    16   am
    27     5     6    1
    28    93    94    1
    29    78    79    1
    30   107   108    2
    31   107   106    1
    32   105   106    1
    33   114   115    1
    34   114   117    1
    35   115   116    2
    36    95    96    2
    37    95    94    1
    38    16    17    1
    39    23    24    1
    40    80    81    2
    41    80    79    1
    42    72    73    2
    43    72    71    1
    44    79    82    1
    45   106   109    1
    46    94    97    1
    47    70    71    1
    48   117   118    1
    49   109   110    1
    50    24    27    1
    51    24    25    1
    52    71    74    1
    53    17    18    1
    54    17    20    1
    55    97    98    1
    56    97    99    1
    57    18    19    2
    58    64    63    2
    59    63    62    1
    60    82    83    1
    61    61    62    1
    62    74    75    1
    63    25    26    2
    64    25    28   am
    65   110   111    1
    66   110   112    1
    67    83    84    1
    68   118   119    1
    69    98   100    1
    70    21    20    1
    71    20    22    1
    72    62    65    1
    73    28    29    1
    74    36    37    1
    75    85    84    1
    76    30    29    1
    77    30    31    2
    78    75    76    1
    79    75    77    1
    80   119   120    1
    81    29    32    1
    82    65    66    1
    83    32    33    1
    84    37    38    1
    85    37    40    1
    86    69    67   am
    87    67    68    2
    88    67    66    1
    89    38    39    2
    90    33    34    1
    91    33    35    1
    92    40    41    1
    93    50    51    1
    94    41    42   ar
    95    41    43   ar
    96    52    51    1
    97    52    53    2
    98    42    44   ar
    99    51    54    1
   100    43    46   ar
   101    43    45   ar
   102    46    48   ar
   103    54    55    1
   104    44    45   ar
   105    55    56    1
   106    60    58    1
   107    57    58    2
   108    57    56    1
   109    45    47   ar
   110    48    49   ar
   111    58    59    1
   112    47    49   ar
