@<TRIPOS>MOLECULE
tmp/1xivA00.pdb
 112 108 0 0 0
SMALL
GASTEIGER

@<TRIPOS>ATOM
      1  N         37.3840   22.2220   15.8460 N.3     9  VAL9       -0.1231
      2  CA        37.2780   20.8940   16.4570 C.3     9  VAL9        0.1692
      3  C         36.7440   19.9610   15.3860 C.2     9  VAL9        0.2592
      4  O         35.5190   19.8580   15.1300 O.2     9  VAL9       -0.2718
      5  CB        36.4020   20.9510   17.7310 C.3     9  VAL9        0.0266
      6  CG1       36.2930   19.5850   18.3740 C.3     9  VAL9        0.0020
      7  CG2       36.9580   21.9790   18.7280 C.3     9  VAL9        0.0020
      8  N         37.6920   19.2790   14.7570 N.am   10  GLY10      -0.1957
      9  CA        37.4670   18.4830   13.5690 C.3    10  GLY10       0.1869
     10  C         38.2930   19.0790   12.4280 C.2    10  GLY10       0.2309
     11  O         38.1130   20.2390   12.0550 O.2    10  GLY10      -0.2863
     12  N         42.2180   20.9640   15.3480 N.3    33  PHE33      -0.1227
     13  CA        42.1390   19.8710   16.3160 C.3    33  PHE33       0.1736
     14  C         41.4810   18.6230   15.6900 C.2    33  PHE33       0.2595
     15  O         40.5020   18.7120   14.9660 O.2    33  PHE33      -0.2718
     16  CB        41.3740   20.2930   17.5820 C.3    33  PHE33       0.0547
     17  CG        41.1140   19.1480   18.5460 C.ar   33  PHE33      -0.0202
     18  CD1       41.9870   18.9080   19.6030 C.ar   33  PHE33      -0.0042
     19  CD2       40.0430   18.2930   18.3610 C.ar   33  PHE33      -0.0042
     20  CE1       41.7700   17.8300   20.4760 C.ar   33  PHE33      -0.0003
     21  CE2       39.8330   17.1960   19.2220 C.ar   33  PHE33      -0.0003
     22  CZ        40.6900   16.9870   20.2760 C.ar   33  PHE33      -0.0000
     23  N         42.0020   17.4410   16.0210 N.am   34  ASP34      -0.1960
     24  CA        41.3300   16.1890   15.6910 C.3    34  ASP34       0.1840
     25  C         41.8490   15.1060   16.6200 C.2    34  ASP34       0.2621
     26  O         42.9220   15.2650   17.2320 O.2    34  ASP34      -0.2715
     27  CB        41.6120   15.7700   14.2660 C.3    34  ASP34       0.1450
     28  CG        40.4500   15.0510   13.6270 C.2    34  ASP34       0.3671
     29  OD1       40.2010   13.8690   13.9970 O.co2  34  ASP34      -0.2456
     30  OD2       39.7220   15.5750   12.7370 O.co2  34  ASP34      -0.2456
     31  N         41.0820   14.0290   16.7580 N.am   35  ILE35      -0.1977
     32  CA        41.6060   12.8770   17.4960 C.3    35  ILE35       0.1596
     33  C         42.5440   12.0300   16.6470 C.2    35  ILE35       0.2287
     34  O         43.3330   11.2490   17.1990 O.2    35  ILE35      -0.2864
     35  CB        40.4820   12.0230   18.0990 C.3    35  ILE35       0.0276
     36  CG1       39.5720   11.4370   17.0330 C.3    35  ILE35       0.0022
     37  CG2       39.7000   12.8500   19.1100 C.3    35  ILE35       0.0022
     38  CD1       38.6580   10.3390   17.6060 C.3    35  ILE35       0.0001
     39  N         42.8200   18.3490   23.8490 N.3    66  TYR66      -0.1241
     40  CA        41.6520   19.1910   24.0760 C.3    66  TYR66       0.1605
     41  C         41.9590   20.4730   24.8520 C.2    66  TYR66       0.2264
     42  O         41.2630   21.4600   24.6770 O.2    66  TYR66      -0.2867
     43  CB        40.5630   18.4030   24.8160 C.3    66  TYR66       0.0534
     44  CG        39.6500   17.6420   23.9150 C.ar   66  TYR66      -0.0201
     45  CD1       39.6330   16.2610   23.9330 C.ar   66  TYR66      -0.0009
     46  CD2       38.7650   18.3030   23.0580 C.ar   66  TYR66      -0.0009
     47  CE1       38.7740   15.5540   23.1260 C.ar   66  TYR66       0.0417
     48  CE2       37.9040   17.5940   22.2350 C.ar   66  TYR66       0.0417
     49  CZ        37.9100   16.2250   22.2850 C.ar   66  TYR66       0.1957
     50  OH        37.0590   15.5100   21.4800 O.3    66  TYR66      -0.2866
     51  N         33.3550   17.8390   14.1070 N.3    79  ALA79      -0.1231
     52  CA        33.6000   16.4370   14.4840 C.3    79  ALA79       0.1694
     53  C         32.2900   15.6420   14.5280 C.2    79  ALA79       0.2593
     54  O         31.2790   16.1340   14.9730 O.2    79  ALA79      -0.2718
     55  CB        34.2220   16.3820   15.8470 C.3    79  ALA79       0.0304
     56  N         32.3410   14.3910   14.1210 N.am   80  GLY80      -0.1942
     57  CA        31.1590   13.5390   14.1800 C.3    80  GLY80       0.2014
     58  C         31.1770   12.4540   13.1330 C.2    80  GLY80       0.2638
     59  O         31.7810   12.5980   12.0560 O.2    80  GLY80      -0.2714
     60  N         30.5180   11.3460   13.4490 N.am   81  PHE81      -0.1973
     61  CA        30.2850   10.3000   12.4450 C.3    81  PHE81       0.1639
     62  C         29.2630   10.7590   11.3920 C.2    81  PHE81       0.2290
     63  O         28.2890   11.4560   11.7080 O.2    81  PHE81      -0.2864
     64  CB        29.7640    9.0320   13.1120 C.3    81  PHE81       0.0560
     65  CG        30.7150    8.4320   14.0720 C.ar   81  PHE81      -0.0200
     66  CD1       30.6370    8.7300   15.4200 C.ar   81  PHE81      -0.0042
     67  CD2       31.7010    7.5580   13.6260 C.ar   81  PHE81      -0.0042
     68  CE1       31.5310    8.1710   16.3210 C.ar   81  PHE81      -0.0003
     69  CE2       32.6010    6.9840   14.5230 C.ar   81  PHE81      -0.0003
     70  CZ        32.5080    7.2880   15.8780 C.ar   81  PHE81      -0.0000
     71  N         25.7640    8.2340   19.0360 N.3    89  LEU89      -0.1245
     72  CA        27.2160    8.3020   18.8910 C.3    89  LEU89       0.1561
     73  C         27.6760    9.7640   18.8500 C.2    89  LEU89       0.2260
     74  O         28.6280   10.1500   19.5450 O.2    89  LEU89      -0.2867
     75  CB        27.6670    7.5960   17.6050 C.3    89  LEU89       0.0270
     76  CG        27.3720    6.0870   17.5280 C.3    89  LEU89       0.0019
     77  CD1       27.8130    5.4840   16.1880 C.3    89  LEU89       0.0001
     78  CD2       28.0590    5.3780   18.7070 C.3    89  LEU89       0.0001
     79  N         27.4230   11.6080   22.1710 N.3    92  LYS92      -0.1231
     80  CA        28.5640   11.3650   23.0420 C.3    92  LYS92       0.1693
     81  C         29.7540   12.2670   22.6860 C.2    92  LYS92       0.2591
     82  O         30.4680   12.7280   23.5720 O.2    92  LYS92      -0.2718
     83  CB        28.9750    9.9020   22.9690 C.3    92  LYS92       0.0285
     84  CG        27.9410    8.9510   23.5770 C.3    92  LYS92       0.0035
     85  CD        28.6480    8.4960   25.0400 C.3    92  LYS92       0.0206
     86  CE        28.1990    9.3110   26.2650 C.3    92  LYS92       0.1093
     87  NZ        26.7970    9.0300   26.5790 N.3    92  LYS92      -0.1314
     88  N         29.9380   12.5420   21.3960 N.am   93  ILE93      -0.1980
     89  CA        30.9850   13.4730   20.9610 C.3    93  ILE93       0.1595
     90  C         30.6740   14.9050   21.4240 C.2    93  ILE93       0.2287
     91  O         31.5470   15.6090   21.9330 O.2    93  ILE93      -0.2864
     92  CB        31.2010   13.3660   19.4290 C.3    93  ILE93       0.0276
     93  CG1       31.7430   11.9770   19.0890 C.3    93  ILE93       0.0022
     94  CG2       32.1210   14.4720   18.9380 C.3    93  ILE93       0.0022
     95  CD1       31.8160   11.6650   17.6090 C.3    93  ILE93       0.0001
     96  N         31.4830   15.1800   25.1670 N.3    96  GLU96      -0.1231
     97  CA        32.9100   15.2470   25.3810 C.3    96  GLU96       0.1699
     98  C         33.4170   16.6490   25.0690 C.2    96  GLU96       0.2592
     99  O         34.0660   17.2810   25.9000 O.2    96  GLU96      -0.2718
    100  CB        33.5820   14.2260   24.5030 C.3    96  GLU96       0.0402
    101  CG        35.0840   14.2430   24.5840 C.3    96  GLU96       0.1161
    102  CD        35.7170   13.0280   23.9540 C.2    96  GLU96       0.3649
    103  OE1       36.4160   13.1710   22.9250 O.co2  96  GLU96      -0.2457
    104  OE2       35.5400   11.9310   24.5170 O.co2  96  GLU96      -0.2457
    105  N         33.0420   17.1560   23.8960 N.am   97  ILE97      -0.1980
    106  CA        33.4950   18.4890   23.4980 C.3    97  ILE97       0.1595
    107  C         32.9500   19.5790   24.4320 C.2    97  ILE97       0.2287
    108  O         33.6710   20.5190   24.8090 O.2    97  ILE97      -0.2864
    109  CB        33.1330   18.7590   22.0180 C.3    97  ILE97       0.0276
    110  CG1       33.8560   17.7830   21.0910 C.3    97  ILE97       0.0022
    111  CG2       33.4910   20.1740   21.6450 C.3    97  ILE97       0.0022
    112  CD1       33.3260   17.8130   19.6430 C.3    97  ILE97       0.0001
@<TRIPOS>BOND
     1    62    63    2
     2    62    61    1
     3    11    10    2
     4    59    58    2
     5    10     9    1
     6    61    64    1
     7    61    60    1
     8    30    28   ar
     9    64    65    1
    10    58    60   am
    11    58    57    1
    12     9     8    1
    13    67    65   ar
    14    67    69   ar
    15    28    29   ar
    16    28    27    1
    17    65    66   ar
    18    51    52    1
    19    56    57    1
    20    56    53   am
    21    27    24    1
    22    52    53    1
    23    52    55    1
    24    69    70   ar
    25    53    54    2
    26     8     3   am
    27    15    14    2
    28     4     3    2
    29    12    13    1
    30     3     2    1
    31    66    68   ar
    32    14    23   am
    33    14    13    1
    34    24    23    1
    35    24    25    1
    36     1     2    1
    37    70    68   ar
    38    77    76    1
    39    13    16    1
    40     2     5    1
    41    25    31   am
    42    25    26    2
    43    33    34    2
    44    33    32    1
    45    31    32    1
    46    36    38    1
    47    36    35    1
    48    32    35    1
    49    76    75    1
    50    76    78    1
    51    16    17    1
    52    75    72    1
    53    95    93    1
    54     5     6    1
    55     5     7    1
    56    35    37    1
    57    19    17   ar
    58    19    21   ar
    59    17    18   ar
    60    73    72    1
    61    73    74    2
    62    72    71    1
    63    94    92    1
    64    93    92    1
    65    21    22   ar
    66    92    89    1
    67    18    20   ar
    68   112   110    1
    69    22    20   ar
    70    89    88    1
    71    89    90    1
    72   110   109    1
    73    88    81   am
    74    90    91    2
    75    50    49    1
    76   111   109    1
    77   109   106    1
    78    79    80    1
    79    48    49   ar
    80    48    46   ar
    81    49    47   ar
    82    81    80    1
    83    81    82    2
    84   103   102   ar
    85    83    80    1
    86    83    84    1
    87    46    44   ar
    88    47    45   ar
    89   106   105    1
    90   106   107    1
    91    84    85    1
    92    39    40    1
    93   105    98   am
    94    44    45   ar
    95    44    43    1
    96   102   104   ar
    97   102   101    1
    98    40    43    1
    99    40    41    1
   100   107   108    2
   101   100   101    1
   102   100    97    1
   103    42    41    2
   104    85    86    1
   105    98    97    1
   106    98    99    2
   107    96    97    1
   108    86    87    1
