@<TRIPOS>MOLECULE
tmp/1xj7A00.pdb
 154 145 0 0 0
SMALL
GASTEIGER

@<TRIPOS>ATOM
      1  N         56.6310   42.7100    9.9350 N.3    50  LEU50      -0.1231
      2  CA        56.8480   42.5020   11.3540 C.3    50  LEU50       0.1693
      3  C         57.2200   43.7910   12.0910 C.2    50  LEU50       0.2591
      4  O         56.6190   44.1420   13.1130 O.2    50  LEU50      -0.2718
      5  CB        57.9540   41.4560   11.5440 C.3    50  LEU50       0.0284
      6  CG        57.7630   40.3840   12.6030 C.3    50  LEU50       0.0019
      7  CD1       56.4770   39.6310   12.3710 C.3    50  LEU50       0.0001
      8  CD2       58.9090   39.4100   12.5500 C.3    50  LEU50       0.0001
      9  N         58.2110   44.5020   11.5660 N.am   51  VAL51      -0.1980
     10  CA        58.6610   45.7450   12.1910 C.3    51  VAL51       0.1595
     11  C         57.5160   46.7020   12.4640 C.2    51  VAL51       0.2287
     12  O         57.4000   47.2350   13.5670 O.2    51  VAL51      -0.2864
     13  CB        59.6880   46.4740   11.3130 C.3    51  VAL51       0.0276
     14  CG1       61.0550   45.7980   11.4250 C.3    51  VAL51       0.0022
     15  CG2       59.1970   46.5020    9.8790 C.3    51  VAL51       0.0022
     16  N         55.2960   45.7290   15.1220 N.3    54  VAL54      -0.1231
     17  CA        55.9690   45.9330   16.3900 C.3    54  VAL54       0.1692
     18  C         55.7310   47.3560   16.8610 C.2    54  VAL54       0.2591
     19  O         55.3040   47.6040   17.9920 O.2    54  VAL54      -0.2718
     20  CB        57.4890   45.7010   16.2680 C.3    54  VAL54       0.0266
     21  CG1       58.1680   46.0560   17.5740 C.3    54  VAL54       0.0020
     22  CG2       57.7870   44.2460   15.8860 C.3    54  VAL54       0.0020
     23  N         56.0110   48.3050   15.9890 N.am   55  LYS55      -0.1980
     24  CA        55.8270   49.6930   16.3610 C.3    55  LYS55       0.1596
     25  C         54.3440   49.9410   16.5980 C.2    55  LYS55       0.2287
     26  O         53.9460   50.6250   17.5520 O.2    55  LYS55      -0.2864
     27  CB        56.3440   50.5930   15.2380 C.3    55  LYS55       0.0298
     28  CG        57.7540   50.2460   14.7720 C.3    55  LYS55       0.0038
     29  CD        58.2660   51.2410   13.7360 C.3    55  LYS55       0.0206
     30  CE        59.5950   50.7870   13.1370 C.3    55  LYS55       0.1093
     31  NZ        60.1670   51.8020   12.2060 N.3    55  LYS55      -0.1314
     32  N         53.3210   48.5730   20.0990 N.3    58  LYS58      -0.1245
     33  CA        53.7890   49.4090   21.1990 C.3    58  LYS58       0.1561
     34  C         52.9830   50.7200   21.3050 C.2    58  LYS58       0.2260
     35  O         53.0300   51.4050   22.3190 O.2    58  LYS58      -0.2867
     36  CB        55.2690   49.7480   21.0290 C.3    58  LYS58       0.0271
     37  CG        56.1530   48.5380   20.8540 C.3    58  LYS58       0.0035
     38  CD        57.6380   48.8910   20.8330 C.3    58  LYS58       0.0206
     39  CE        58.0120   49.9860   19.8260 C.3    58  LYS58       0.1093
     40  NZ        57.8880   51.3640   20.3930 N.3    58  LYS58      -0.1314
     41  N         48.9500   48.7260   26.0180 N.3    63  PHE63      -0.1227
     42  CA        49.8200   47.6450   25.5890 C.3    63  PHE63       0.1736
     43  C         51.1400   47.6540   26.3600 C.2    63  PHE63       0.2595
     44  O         51.6880   46.6040   26.7140 O.2    63  PHE63      -0.2718
     45  CB        50.1010   47.7550   24.0970 C.3    63  PHE63       0.0547
     46  CG        51.0890   46.7480   23.6000 C.ar   63  PHE63      -0.0202
     47  CD1       50.6970   45.4530   23.3100 C.ar   63  PHE63      -0.0042
     48  CD2       52.4280   47.0950   23.4450 C.ar   63  PHE63      -0.0042
     49  CE1       51.6340   44.5070   22.8670 C.ar   63  PHE63      -0.0003
     50  CE2       53.3700   46.1600   23.0050 C.ar   63  PHE63      -0.0003
     51  CZ        52.9750   44.8670   22.7170 C.ar   63  PHE63      -0.0000
     52  N         51.6420   48.8540   26.6210 N.am   64  ARG64      -0.1980
     53  CA        52.9010   49.0250   27.3340 C.3    64  ARG64       0.1597
     54  C         52.8590   48.4750   28.7500 C.2    64  ARG64       0.2287
     55  O         53.8950   48.1290   29.3130 O.2    64  ARG64      -0.2864
     56  CB        53.2830   50.5080   27.3630 C.3    64  ARG64       0.0334
     57  CG        54.1550   50.9470   26.1920 C.3    64  ARG64       0.0492
     58  CD        55.4430   50.1400   26.1640 C.3    64  ARG64       0.2205
     59  NE        56.3320   50.5490   25.0880 N.pl3  64  ARG64      -0.0865
     60  CZ        57.5340   50.0240   24.8900 C.cat  64  ARG64       0.5346
     61  NH1       57.9810   49.0690   25.6990 N.pl3  64  ARG64       0.1354
     62  NH2       58.2830   50.4490   23.8810 N.pl3  64  ARG64       0.1354
     63  N         57.4800   42.7070   29.2620 N.3    68  VAL68      -0.1231
     64  CA        58.3010   42.6480   28.0710 C.3    68  VAL68       0.1692
     65  C         58.2110   41.2940   27.3850 C.2    68  VAL68       0.2592
     66  O         57.6530   41.1740   26.2920 O.2    68  VAL68      -0.2718
     67  CB        59.7470   42.9330   28.3980 C.3    68  VAL68       0.0266
     68  CG1       60.5260   43.1290   27.1170 C.3    68  VAL68       0.0020
     69  CG2       59.8350   44.1500   29.3090 C.3    68  VAL68       0.0020
     70  N         58.7640   40.2760   28.0300 N.am   69  ASP69      -0.1974
     71  CA        58.7470   38.9360   27.4760 C.3    69  ASP69       0.1709
     72  C         57.3630   38.5910   26.9460 C.2    69  ASP69       0.2293
     73  O         57.2220   37.8940   25.9380 O.2    69  ASP69      -0.2864
     74  CB        59.1670   37.9170   28.5340 C.3    69  ASP69       0.1436
     75  CG        60.6690   37.8840   28.7500 C.2    69  ASP69       0.3671
     76  OD1       61.2400   38.8660   29.2770 O.co2  69  ASP69      -0.2456
     77  OD2       61.2850   36.8630   28.3850 O.co2  69  ASP69      -0.2456
     78  N         54.9810   40.8060   25.8390 N.3    71  GLN71      -0.1231
     79  CA        54.8140   41.6030   24.6280 C.3    71  GLN71       0.1698
     80  C         55.5250   40.9020   23.4970 C.2    71  GLN71       0.2592
     81  O         54.9360   40.6470   22.4550 O.2    71  GLN71      -0.2718
     82  CB        55.3960   43.0030   24.8180 C.3    71  GLN71       0.0381
     83  CG        54.5440   43.8940   25.6950 C.3    71  GLN71       0.0905
     84  CD        55.1860   45.2320   25.9500 C.2    71  GLN71       0.2608
     85  OE1       54.5230   46.2670   25.9000 O.2    71  GLN71      -0.2717
     86  NE2       56.4790   45.2220   26.2360 N.am   71  GLN71      -0.0878
     87  N         56.7900   40.5690   23.7110 N.am   72  MET72      -0.1979
     88  CA        57.5590   39.8940   22.6780 C.3    72  MET72       0.1605
     89  C         56.9070   38.5620   22.3120 C.2    72  MET72       0.2287
     90  O         56.8910   38.1420   21.1520 O.2    72  MET72      -0.2864
     91  CB        58.9860   39.6740   23.1750 C.3    72  MET72       0.0413
     92  CG        59.9540   39.1980   22.1090 C.3    72  MET72       0.0598
     93  SD        61.6360   39.0110   22.7360 S.3    72  MET72      -0.1393
     94  CE        61.4960   37.3710   23.5800 C.3    72  MET72       0.0692
     95  N         53.2260   39.0690   20.4580 N.3    75  ILE75      -0.1231
     96  CA        53.4670   39.5710   19.1110 C.3    75  ILE75       0.1692
     97  C         54.0350   38.4730   18.2390 C.2    75  ILE75       0.2591
     98  O         53.7320   38.4070   17.0410 O.2    75  ILE75      -0.2718
     99  CB        54.4510   40.7290   19.1150 C.3    75  ILE75       0.0266
    100  CG1       53.8490   41.9130   19.8840 C.3    75  ILE75       0.0019
    101  CG2       54.7680   41.1190   17.6860 C.3    75  ILE75       0.0020
    102  CD1       54.8430   42.9760   20.2970 C.3    75  ILE75       0.0001
    103  N         54.8630   37.6230   18.8440 N.am   76  GLN76      -0.1979
    104  CA        55.4810   36.5090   18.1340 C.3    76  GLN76       0.1601
    105  C         54.4900   35.4310   17.7600 C.2    76  GLN76       0.2287
    106  O         54.8220   34.5300   17.0010 O.2    76  GLN76      -0.2864
    107  CB        56.5970   35.8970   18.9830 C.3    76  GLN76       0.0394
    108  CG        57.9160   36.6010   18.8210 C.3    76  GLN76       0.0908
    109  CD        58.8300   36.3760   19.9920 C.2    76  GLN76       0.2608
    110  OE1       60.0230   36.6690   19.9280 O.2    76  GLN76      -0.2717
    111  NE2       58.2740   35.8620   21.0830 N.am   76  GLN76      -0.0878
    112  N         66.5340   36.7200    8.6970 N.3   231  GLU231     -0.1231
    113  CA        67.1010   36.3520    9.9880 C.3   231  GLU231      0.1699
    114  C         66.0460   36.2480   11.0770 C.2   231  GLU231      0.2592
    115  O         66.0770   35.3360   11.9110 O.2   231  GLU231     -0.2718
    116  CB        68.1480   37.3800   10.4160 C.3   231  GLU231      0.0402
    117  CG        67.5640   38.7380   10.7590 C.3   231  GLU231      0.1161
    118  CD        68.1980   39.3610   11.9890 C.2   231  GLU231      0.3649
    119  OE1       67.7220   40.4380   12.4110 O.co2 231  GLU231     -0.2457
    120  OE2       69.1600   38.7780   12.5350 O.co2 231  GLU231     -0.2457
    121  N         65.1140   37.1900   11.0650 N.am  232  MET232     -0.1979
    122  CA        64.0650   37.2170   12.0660 C.3   232  MET232      0.1605
    123  C         62.9580   36.2250   11.7480 C.2   232  MET232      0.2287
    124  O         62.4070   35.6150   12.6540 O.2   232  MET232     -0.2864
    125  CB        63.5010   38.6320   12.1770 C.3   232  MET232      0.0413
    126  CG        62.6350   38.8530   13.3970 C.3   232  MET232      0.0598
    127  SD        62.2780   40.6030   13.6460 S.3   232  MET232     -0.1393
    128  CE        63.8470   41.1710   14.3740 C.3   232  MET232      0.0692
    129  N         63.5290   32.5980   12.7340 N.3   235  GLU235     -0.1231
    130  CA        63.5200   32.5040   14.1920 C.3   235  GLU235      0.1699
    131  C         62.1720   32.0680   14.7300 C.2   235  GLU235      0.2592
    132  O         62.0590   30.9810   15.2870 O.2   235  GLU235     -0.2718
    133  CB        63.9050   33.8460   14.8170 C.3   235  GLU235      0.0402
    134  CG        64.6600   33.7000   16.1280 C.3   235  GLU235      0.1161
    135  CD        63.8000   33.2090   17.2680 C.2   235  GLU235      0.3649
    136  OE1       64.3400   32.5100   18.1590 O.co2 235  GLU235     -0.2457
    137  OE2       62.5900   33.5340   17.2890 O.co2 235  GLU235     -0.2457
    138  N         61.1590   32.9180   14.5650 N.am  236  ILE236     -0.1980
    139  CA        59.8100   32.6270   15.0510 C.3   236  ILE236      0.1595
    140  C         59.2620   31.2910   14.5620 C.2   236  ILE236      0.2287
    141  O         58.7350   30.4870   15.3370 O.2   236  ILE236     -0.2864
    142  CB        58.8110   33.7270   14.6320 C.3   236  ILE236      0.0276
    143  CG1       59.1380   35.0460   15.3440 C.3   236  ILE236      0.0022
    144  CG2       57.3850   33.2790   14.9430 C.3   236  ILE236      0.0022
    145  CD1       60.3710   35.7380   14.8270 C.3   236  ILE236      0.0001
    146  N         58.7400   29.8750   18.0390 N.3   240  GLN240     -0.1245
    147  CA        57.3980   30.3220   18.3670 C.3   240  GLN240      0.1566
    148  C         56.3210   29.5300   17.6300 C.2   240  GLN240      0.2260
    149  O         55.3980   29.0060   18.2430 O.2   240  GLN240     -0.2867
    150  CB        57.2520   31.8040   18.0390 C.3   240  GLN240      0.0367
    151  CG        58.3320   32.6770   18.6530 C.3   240  GLN240      0.0905
    152  CD        58.6610   32.3000   20.0940 C.2   240  GLN240      0.2608
    153  OE1       57.7680   32.0160   20.8990 O.2   240  GLN240     -0.2717
    154  NE2       59.9470   32.3140   20.4290 N.am  240  GLN240     -0.0878
@<TRIPOS>BOND
     1   112   113    1
     2    15    13    1
     3     1     2    1
     4   113   116    1
     5   113   114    1
     6   116   117    1
     7   117   118    1
     8   121   114   am
     9   121   122    1
    10   114   115    2
    11    13    14    1
    12    13    10    1
    13     2     5    1
    14     2     3    1
    15     5     6    1
    16     9     3   am
    17     9    10    1
    18   123   122    1
    19   123   124    2
    20   118   119   ar
    21   118   120   ar
    22   122   125    1
    23     3     4    2
    24   125   126    1
    25    10    11    1
    26    31    30    1
    27     7     6    1
    28    11    12    2
    29     8     6    1
    30   129   130    1
    31    30    29    1
    32   126   127    1
    33   127   128    1
    34    29    28    1
    35   130   131    1
    36   130   133    1
    37   140   139    1
    38   140   141    2
    39   138   131   am
    40   138   139    1
    41   142   144    1
    42   142   139    1
    43   142   143    1
    44   131   132    2
    45    28    27    1
    46   133   134    1
    47   145   143    1
    48    16    17    1
    49    27    24    1
    50    22    20    1
    51    23    24    1
    52    23    18   am
    53   134   135    1
    54    20    17    1
    55    20    21    1
    56    24    25    1
    57    17    18    1
    58    25    26    2
    59    18    19    2
    60   106   105    2
    61    98    97    2
    62   135   137   ar
    63   135   136   ar
    64   148   149    2
    65   148   147    1
    66   101    99    1
    67   105   104    1
    68   146   147    1
    69   150   147    1
    70   150   151    1
    71   104   103    1
    72   104   107    1
    73    97   103   am
    74    97    96    1
    75   151   152    1
    76   108   107    1
    77   108   109    1
    78    96    99    1
    79    96    95    1
    80    99   100    1
    81    39    40    1
    82    39    38    1
    83   100   102    1
    84   110   109    2
    85   109   111   am
    86   152   154   am
    87   152   153    2
    88    32    33    1
    89    38    37    1
    90    37    36    1
    91    36    33    1
    92    90    89    2
    93    33    34    1
    94    34    35    2
    95    92    93    1
    96    92    91    1
    97    89    88    1
    98    81    80    2
    99    88    91    1
   100    88    87    1
   101    51    49   ar
   102    51    50   ar
   103    93    94    1
   104    49    47   ar
   105    50    48   ar
   106    47    46   ar
   107    48    46   ar
   108    80    87   am
   109    80    79    1
   110    46    45    1
   111    62    60    1
   112    45    42    1
   113    79    82    1
   114    79    78    1
   115    82    83    1
   116    60    59    2
   117    60    61    1
   118    59    58    1
   119    42    41    1
   120    42    43    1
   121    83    84    1
   122    85    84    2
   123    73    72    2
   124    84    86   am
   125    58    57    1
   126    57    56    1
   127    66    65    2
   128    43    52   am
   129    43    44    2
   130    52    53    1
   131    72    71    1
   132    68    67    1
   133    53    56    1
   134    53    54    1
   135    65    70   am
   136    65    64    1
   137    71    70    1
   138    71    74    1
   139    64    67    1
   140    64    63    1
   141    77    75   ar
   142    67    69    1
   143    74    75    1
   144    75    76   ar
   145    54    55    2
