@<TRIPOS>MOLECULE
tmp/1xj7A01.pdb
 189 177 0 0 0
SMALL
GASTEIGER

@<TRIPOS>ATOM
      1  N         57.4390   32.8200   -3.1880 N.3    39  LEU39      -0.1245
      2  CA        57.5410   32.5640   -1.7590 C.3    39  LEU39       0.1561
      3  C         58.6780   33.3200   -1.0930 C.2    39  LEU39       0.2260
      4  O         58.5800   33.7020    0.0760 O.2    39  LEU39      -0.2867
      5  CB        57.7160   31.0750   -1.5030 C.3    39  LEU39       0.0270
      6  CG        56.4630   30.2920   -1.1290 C.3    39  LEU39       0.0019
      7  CD1       56.0340   30.6360    0.2890 C.3    39  LEU39       0.0001
      8  CD2       55.3820   30.6030   -2.1390 C.3    39  LEU39       0.0001
      9  N         57.2640   36.8400   -0.5310 N.3    42  LEU42      -0.1231
     10  CA        56.3040   36.8770    0.5670 C.3    42  LEU42       0.1693
     11  C         57.0510   36.8030    1.8740 C.2    42  LEU42       0.2592
     12  O         56.6280   37.3730    2.8770 O.2    42  LEU42      -0.2718
     13  CB        55.3370   35.7070    0.4800 C.3    42  LEU42       0.0284
     14  CG        54.1780   35.8800   -0.4950 C.3    42  LEU42       0.0019
     15  CD1       53.3280   34.6490   -0.4430 C.3    42  LEU42       0.0001
     16  CD2       53.3440   37.0910   -0.1210 C.3    42  LEU42       0.0001
     17  N         58.1690   36.0840    1.8570 N.am   43  ASN43      -0.1974
     18  CA        58.9740   35.9350    3.0620 C.3    43  ASN43       0.1688
     19  C         59.6080   37.2720    3.4090 C.2    43  ASN43       0.2292
     20  O         59.6680   37.6550    4.5770 O.2    43  ASN43      -0.2864
     21  CB        60.0440   34.8550    2.8640 C.3    43  ASN43       0.1181
     22  CG        59.5020   33.4310    3.0730 C.2    43  ASN43       0.2629
     23  OD1       58.3010   33.2170    3.2220 O.2    43  ASN43      -0.2716
     24  ND2       60.4060   32.4520    3.0780 N.am   43  ASN43      -0.0877
     25  N         58.4210   40.0480    2.5870 N.3    45  LEU45      -0.1231
     26  CA        57.3140   40.9090    2.9740 C.3    45  LEU45       0.1693
     27  C         57.0090   40.6860    4.4410 C.2    45  LEU45       0.2592
     28  O         56.7330   41.6320    5.1640 O.2    45  LEU45      -0.2718
     29  CB        56.0800   40.5620    2.1580 C.3    45  LEU45       0.0284
     30  CG        54.8110   41.3730    2.3730 C.3    45  LEU45       0.0019
     31  CD1       54.9610   42.7100    1.7090 C.3    45  LEU45       0.0001
     32  CD2       53.6340   40.6570    1.7530 C.3    45  LEU45       0.0001
     33  N         57.0400   39.4270    4.8680 N.am   46  GLY46      -0.1957
     34  CA        56.7370   39.1130    6.2490 C.3    46  GLY46       0.1869
     35  C         57.5980   39.8920    7.2190 C.2    46  GLY46       0.2309
     36  O         57.0970   40.4980    8.1760 O.2    46  GLY46      -0.2863
     37  N         56.8390   43.3740    7.3350 N.3    49  GLN49      -0.1245
     38  CA        55.5680   43.6200    7.9690 C.3    49  GLN49       0.1566
     39  C         55.6890   43.5200    9.4800 C.2    49  GLN49       0.2260
     40  O         54.9410   44.1510   10.2140 O.2    49  GLN49      -0.2867
     41  CB        54.5510   42.6020    7.4790 C.3    49  GLN49       0.0367
     42  CG        54.1090   42.7840    6.0460 C.3    49  GLN49       0.0905
     43  CD        53.0660   43.8530    5.9410 C.2    49  GLN49       0.2608
     44  OE1       52.1290   43.7520    5.1490 O.2    49  GLN49      -0.2717
     45  NE2       53.2110   44.8880    6.7460 N.am   49  GLN49      -0.0878
     46  N         51.0440   37.2850   15.1800 N.3    79  TRP79      -0.1227
     47  CA        51.5540   38.0400   14.0340 C.3    79  TRP79       0.1737
     48  C         50.9530   37.5230   12.7310 C.2    79  TRP79       0.2595
     49  O         50.5470   38.2900   11.8480 O.2    79  TRP79      -0.2718
     50  CB        53.0830   37.9360   13.9510 C.3    79  TRP79       0.0564
     51  CG        53.6010   36.5650   13.6240 C.ar   79  TRP79       0.0003
     52  CD1       53.7700   35.5220   14.4890 C.ar   79  TRP79       0.0946
     53  CD2       53.9690   36.0790   12.3320 C.ar   79  TRP79       0.0152
     54  NE1       54.2170   34.4110   13.8110 N.ar   79  TRP79      -0.2442
     55  CE2       54.3490   34.7270   12.4830 C.ar   79  TRP79       0.0810
     56  CE3       54.0100   36.6530   11.0570 C.ar   79  TRP79       0.0012
     57  CZ2       54.7680   33.9440   11.4090 C.ar   79  TRP79       0.0191
     58  CZ3       54.4240   35.8720    9.9870 C.ar   79  TRP79       0.0001
     59  CH2       54.7990   34.5290   10.1740 C.ar   79  TRP79       0.0015
     60  N         50.8930   36.2070   12.6140 N.am   80  MET80      -0.1979
     61  CA        50.3610   35.6040   11.4070 C.3    80  MET80       0.1605
     62  C         48.8980   36.0100   11.2250 C.2    80  MET80       0.2287
     63  O         48.5050   36.4930   10.1630 O.2    80  MET80      -0.2864
     64  CB        50.5070   34.0790   11.4920 C.3    80  MET80       0.0413
     65  CG        50.0000   33.3240   10.2640 C.3    80  MET80       0.0598
     66  SD        50.9450   33.5360    8.7300 S.3    80  MET80      -0.1393
     67  CE        51.8600   32.0160    8.7390 C.3    80  MET80       0.0692
     68  N         48.4730   39.9390   10.1170 N.3    83  MET83      -0.1230
     69  CA        48.8690   40.1890    8.7450 C.3    83  MET83       0.1702
     70  C         47.8320   39.6790    7.7800 C.2    83  MET83       0.2592
     71  O         47.4640   40.3690    6.8180 O.2    83  MET83      -0.2718
     72  CB        50.2150   39.5190    8.4630 C.3    83  MET83       0.0401
     73  CG        51.2970   39.8570    9.4910 C.3    83  MET83       0.0596
     74  SD        53.0010   39.8520    8.8400 S.3    83  MET83      -0.1393
     75  CE        53.8520   40.5890   10.2220 C.3    83  MET83       0.0692
     76  N         47.3390   38.4750    8.0360 N.am   84  VAL84      -0.1980
     77  CA        46.3500   37.9220    7.1470 C.3    84  VAL84       0.1595
     78  C         45.1310   38.8020    7.1440 C.2    84  VAL84       0.2287
     79  O         44.5560   39.0540    6.0980 O.2    84  VAL84      -0.2864
     80  CB        45.9420   36.5210    7.5370 C.3    84  VAL84       0.0276
     81  CG1       44.8850   36.0430    6.5760 C.3    84  VAL84       0.0022
     82  CG2       47.1240   35.6030    7.4620 C.3    84  VAL84       0.0022
     83  N         45.9250   42.1760    5.3800 N.3    87  MET87      -0.1245
     84  CA        46.0010   41.8770    3.9570 C.3    87  MET87       0.1570
     85  C         44.5850   41.6990    3.4140 C.2    87  MET87       0.2261
     86  O         44.2850   42.1110    2.2940 O.2    87  MET87      -0.2867
     87  CB        46.8340   40.6050    3.7430 C.3    87  MET87       0.0387
     88  CG        47.0150   40.1890    2.2900 C.3    87  MET87       0.0595
     89  SD        45.5740   39.4170    1.5130 S.3    87  MET87      -0.1393
     90  CE        45.8850   37.6770    1.8900 C.3    87  MET87       0.0692
     91  N         43.0470   44.9020    2.8140 N.3    90  ARG90      -0.1245
     92  CA        43.6480   45.5490    1.6590 C.3    90  ARG90       0.1563
     93  C         43.0060   45.0610    0.3750 C.2    90  ARG90       0.2260
     94  O         42.5840   45.8600   -0.4590 O.2    90  ARG90      -0.2867
     95  CB        45.1400   45.2710    1.5890 C.3    90  ARG90       0.0307
     96  CG        45.9640   46.1300    2.5050 C.3    90  ARG90       0.0489
     97  CD        47.4020   46.1710    2.0200 C.3    90  ARG90       0.2205
     98  NE        48.0380   44.8590    2.0410 N.pl3  90  ARG90      -0.0865
     99  CZ        48.3760   44.2070    3.1510 C.cat  90  ARG90       0.5346
    100  NH1       48.1360   44.7460    4.3400 N.pl3  90  ARG90       0.1354
    101  NH2       48.9590   43.0150    3.0780 N.pl3  90  ARG90       0.1354
    102  N         48.7550   41.5490   -1.4350 N.3   102  PHE102     -0.1241
    103  CA        49.7240   41.4470   -0.3450 C.3   102  PHE102      0.1605
    104  C         50.5060   42.7470   -0.1990 C.2   102  PHE102      0.2264
    105  O         50.7780   43.1900    0.9120 O.2   102  PHE102     -0.2867
    106  CB        50.7160   40.3080   -0.6110 C.3   102  PHE102      0.0534
    107  CG        50.1330   38.9550   -0.4410 C.ar  102  PHE102     -0.0203
    108  CD1       49.7000   38.5290    0.8120 C.ar  102  PHE102     -0.0042
    109  CD2       49.9940   38.1100   -1.5310 C.ar  102  PHE102     -0.0042
    110  CE1       49.1360   37.2840    0.9780 C.ar  102  PHE102     -0.0003
    111  CE2       49.4340   36.8640   -1.3720 C.ar  102  PHE102     -0.0003
    112  CZ        49.0000   36.4450   -0.1120 C.ar  102  PHE102     -0.0000
    113  N         50.5970   26.9510   -2.9170 N.3   118  MET118     -0.1245
    114  CA        49.6120   27.0530   -1.8570 C.3   118  MET118      0.1570
    115  C         48.3560   27.7730   -2.3160 C.2   118  MET118      0.2261
    116  O         48.0310   28.8480   -1.8250 O.2   118  MET118     -0.2867
    117  CB        50.1890   27.7640   -0.6400 C.3   118  MET118      0.0387
    118  CG        50.8190   29.1090   -0.9460 C.3   118  MET118      0.0595
    119  SD        51.3760   30.0040    0.5350 S.3   118  MET118     -0.1393
    120  CE        51.0680   31.6890    0.0390 C.3   118  MET118      0.0692
    121  N         41.9740   32.7930    2.3750 N.3   125  MET125     -0.1245
    122  CA        42.2910   34.1910    2.6080 C.3   125  MET125      0.1570
    123  C         41.4960   35.0670    1.6600 C.2   125  MET125      0.2261
    124  O         41.2270   36.2310    1.9470 O.2   125  MET125     -0.2867
    125  CB        43.7840   34.4510    2.4280 C.3   125  MET125      0.0387
    126  CG        44.6430   33.6870    3.4150 C.3   125  MET125      0.0595
    127  SD        46.3350   34.2660    3.4130 S.3   125  MET125     -0.1393
    128  CE        46.9930   33.3550    2.0380 C.3   125  MET125      0.0692
    129  N         48.1290   28.4800    7.5580 N.3   211  LEU211     -0.1245
    130  CA        49.2760   29.1550    6.9980 C.3   211  LEU211      0.1561
    131  C         50.5170   28.8680    7.8290 C.2   211  LEU211      0.2260
    132  O         51.6350   29.0680    7.3690 O.2   211  LEU211     -0.2867
    133  CB        49.0230   30.6510    6.9310 C.3   211  LEU211      0.0270
    134  CG        48.2060   31.1070    5.7250 C.3   211  LEU211      0.0019
    135  CD1       47.8800   32.5910    5.8340 C.3   211  LEU211      0.0001
    136  CD2       49.0060   30.8310    4.4630 C.3   211  LEU211      0.0001
    137  N         52.3120   25.3510    6.7220 N.3   214  PHE214     -0.1227
    138  CA        52.9630   25.5530    5.4370 C.3   214  PHE214      0.1736
    139  C         54.3200   26.2200    5.5240 C.2   214  PHE214      0.2596
    140  O         55.2930   25.7450    4.9310 O.2   214  PHE214     -0.2718
    141  CB        52.0490   26.3690    4.5220 C.3   214  PHE214      0.0547
    142  CG        52.5560   26.5000    3.1170 C.ar  214  PHE214     -0.0202
    143  CD1       53.4090   27.5390    2.7650 C.ar  214  PHE214     -0.0042
    144  CD2       52.1850   25.5770    2.1460 C.ar  214  PHE214     -0.0042
    145  CE1       53.8890   27.6680    1.4650 C.ar  214  PHE214     -0.0003
    146  CE2       52.6600   25.6930    0.8410 C.ar  214  PHE214     -0.0003
    147  CZ        53.5170   26.7450    0.5020 C.ar  214  PHE214     -0.0000
    148  N         54.3870   27.3270    6.2580 N.am  215  THR215     -0.1953
    149  CA        55.6390   28.0640    6.3960 C.3   215  THR215      0.1897
    150  C         56.6740   27.2380    7.1320 C.2   215  THR215      0.2313
    151  O         57.8400   27.2180    6.7460 O.2   215  THR215     -0.2863
    152  CB        55.4420   29.4060    7.1350 C.3   215  THR215      0.1794
    153  OG1       56.6570   30.1610    7.0710 O.3   215  THR215     -0.2208
    154  CG2       55.0800   29.1750    8.5890 C.3   215  THR215      0.0378
    155  N         57.9570   24.6730    5.0160 N.3   218  LEU218     -0.1245
    156  CA        58.7490   25.3650    4.0210 C.3   218  LEU218      0.1561
    157  C         60.1200   25.6900    4.5820 C.2   218  LEU218      0.2260
    158  O         61.1040   25.7380    3.8530 O.2   218  LEU218     -0.2867
    159  CB        58.0260   26.6390    3.6070 C.3   218  LEU218      0.0270
    160  CG        58.8070   27.6190    2.7470 C.3   218  LEU218      0.0019
    161  CD1       59.2330   26.9540    1.4680 C.3   218  LEU218      0.0001
    162  CD2       57.9350   28.8120    2.4550 C.3   218  LEU218      0.0001
    163  N         65.3560   32.9840    3.7810 N.3   229  PHE229     -0.1241
    164  CA        64.5840   33.2640    4.9720 C.3   229  PHE229      0.1605
    165  C         65.2400   34.3490    5.7860 C.2   229  PHE229      0.2264
    166  O         66.3920   34.2140    6.2010 O.2   229  PHE229     -0.2867
    167  CB        64.4670   32.0160    5.8520 C.3   229  PHE229      0.0534
    168  CG        63.1080   31.3770    5.8250 C.ar  229  PHE229     -0.0203
    169  CD1       62.6650   30.6810    4.6980 C.ar  229  PHE229     -0.0042
    170  CD2       62.2520   31.4930    6.9160 C.ar  229  PHE229     -0.0042
    171  CE1       61.3810   30.1060    4.6580 C.ar  229  PHE229     -0.0003
    172  CE2       60.9720   30.9240    6.8860 C.ar  229  PHE229     -0.0003
    173  CZ        60.5330   30.2290    5.7520 C.ar  229  PHE229     -0.0000
    174  N         62.6440   36.0540   10.4680 N.3   233  MET233     -0.1245
    175  CA        61.5850   35.1330   10.0630 C.3   233  MET233      0.1570
    176  C         61.8100   33.7120   10.5500 C.2   233  MET233      0.2261
    177  O         61.0250   33.1580   11.3180 O.2   233  MET233     -0.2867
    178  CB        61.4460   35.1260    8.5420 C.3   233  MET233      0.0387
    179  CG        60.4720   36.1660    8.0040 C.3   233  MET233      0.0595
    180  SD        58.7750   35.9920    8.6430 S.3   233  MET233     -0.1393
    181  CE        58.5720   37.5050    9.4750 C.3   233  MET233      0.0692
    182  N         59.3810   31.0650   13.2640 N.3   237  ILE237     -0.1245
    183  CA        58.9020   29.8340   12.6790 C.3   237  ILE237      0.1561
    184  C         59.5450   28.5800   13.2420 C.2   237  ILE237      0.2260
    185  O         58.9420   27.5200   13.1940 O.2   237  ILE237     -0.2867
    186  CB        59.1320   29.8330   11.1900 C.3   237  ILE237      0.0252
    187  CG1       58.3370   30.9800   10.5650 C.3   237  ILE237      0.0019
    188  CG2       58.6850   28.5280   10.6040 C.3   237  ILE237      0.0019
    189  CD1       58.5880   31.2150    9.0900 C.3   237  ILE237      0.0001
@<TRIPOS>BOND
     1     1     2    1
     2   113   114    1
     3   115   114    1
     4   115   116    2
     5     8     6    1
     6   114   117    1
     7     2     5    1
     8     2     3    1
     9   109   111   ar
    10   109   107   ar
    11     5     6    1
    12   102   103    1
    13   111   112   ar
    14     6     7    1
    15     3     4    2
    16   118   117    1
    17   118   119    1
    18   106   107    1
    19   106   103    1
    20     9    10    1
    21    14    15    1
    22    14    16    1
    23    14    13    1
    24    94    93    2
    25   107   108   ar
    26   103   104    1
    27   104   105    2
    28   112   110   ar
    29   120   119    1
    30    93    92    1
    31    13    10    1
    32   147   146   ar
    33   147   145   ar
    34    10    11    1
    35   108   110   ar
    36   146   144   ar
    37   145   143   ar
    38   161   160    1
    39    89    90    1
    40    89    88    1
    41    95    92    1
    42    95    96    1
    43    92    91    1
    44   123   124    2
    45   123   122    1
    46    31    30    1
    47    32    30    1
    48    17    11   am
    49    17    18    1
    50    11    12    2
    51    97    98    1
    52    97    96    1
    53   128   127    1
    54    98    99    2
    55   144   142   ar
    56    29    30    1
    57    29    26    1
    58    88    87    1
    59    86    85    2
    60   121   122    1
    61   125   122    1
    62   125   126    1
    63   162   160    1
    64    25    26    1
    65   160   159    1
    66   143   142   ar
    67    21    18    1
    68    21    22    1
    69    26    27    1
    70    18    19    1
    71    22    24   am
    72    22    23    2
    73   101    99    1
    74   142   141    1
    75    99   100    1
    76    19    20    2
    77   127   126    1
    78    85    84    1
    79   159   156    1
    80    87    84    1
    81   163   164    1
    82   158   157    2
    83    84    83    1
    84   156   157    1
    85   156   155    1
    86    27    33   am
    87    27    28    2
    88   136   134    1
    89   141   138    1
    90   171   169   ar
    91   171   173   ar
    92   169   168   ar
    93    33    34    1
    94   140   139    2
    95   164   165    1
    96   164   167    1
    97    44    43    2
    98   138   139    1
    99   138   137    1
   100   139   148   am
   101   134   135    1
   102   134   133    1
   103   173   172   ar
   104   165   166    2
   105   168   167    1
   106   168   170   ar
   107    43    42    1
   108    43    45   am
   109    42    41    1
   110    79    78    2
   111    34    35    1
   112   148   149    1
   113   149   150    1
   114   149   152    1
   115    81    80    1
   116   151   150    2
   117    71    70    2
   118   172   170   ar
   119   133   130    1
   120   130   129    1
   121   130   131    1
   122   153   152    1
   123   152   154    1
   124    78    77    1
   125    77    80    1
   126    77    76    1
   127    35    36    2
   128    37    38    1
   129   132   131    2
   130    82    80    1
   131    41    38    1
   132    70    76   am
   133    70    69    1
   134    38    39    1
   135   179   178    1
   136   179   180    1
   137    72    69    1
   138    72    73    1
   139   178   175    1
   140   180   181    1
   141    66    67    1
   142    66    65    1
   143    69    68    1
   144    74    73    1
   145    74    75    1
   146   189   187    1
   147    39    40    2
   148    58    59   ar
   149    58    56   ar
   150   175   174    1
   151   175   176    1
   152    63    62    2
   153    59    57   ar
   154    65    64    1
   155   176   177    2
   156   187   186    1
   157   188   186    1
   158    56    53   ar
   159   186   183    1
   160    62    61    1
   161    61    64    1
   162    61    60    1
   163    57    55   ar
   164    49    48    2
   165    53    55   ar
   166    53    51   ar
   167    55    54   ar
   168    60    48   am
   169   183   184    1
   170   183   182    1
   171    48    47    1
   172   185   184    2
   173    51    50    1
   174    51    52   ar
   175    54    52   ar
   176    50    47    1
   177    47    46    1
