@<TRIPOS>MOLECULE
tmp/1xjbA01.pdb
 123 121 0 0 0
SMALL
GASTEIGER

@<TRIPOS>ATOM
      1  N        109.4140   23.1910  172.5080 N.3    26  TYR26      -0.1241
      2  CA       109.8180   22.4040  171.3170 C.3    26  TYR26       0.1605
      3  C        108.5810   22.1400  170.4910 C.2    26  TYR26       0.2264
      4  O        107.5030   21.8680  171.0470 O.2    26  TYR26      -0.2867
      5  CB       110.3840   21.0420  171.7580 C.3    26  TYR26       0.0534
      6  CG       110.6760   20.2140  170.5190 C.ar   26  TYR26      -0.0201
      7  CD1      111.7620   20.5510  169.6900 C.ar   26  TYR26      -0.0009
      8  CD2      109.7890   19.1760  170.1120 C.ar   26  TYR26      -0.0009
      9  CE1      111.9680   19.8330  168.4920 C.ar   26  TYR26       0.0417
     10  CE2      110.0410   18.4390  168.8710 C.ar   26  TYR26       0.0417
     11  CZ       111.1130   18.8150  168.1290 C.ar   26  TYR26       0.1957
     12  OH       111.3890   18.1580  166.9510 O.3    26  TYR26      -0.2866
     13  N        119.2330   22.8380  170.8470 N.3    56  VAL56      -0.1231
     14  CA       118.8820   21.8830  169.8170 C.3    56  VAL56       0.1692
     15  C        117.4590   22.1120  169.3320 C.2    56  VAL56       0.2592
     16  O        117.0640   21.5630  168.3310 O.2    56  VAL56      -0.2718
     17  CB       119.0550   20.4240  170.4020 C.3    56  VAL56       0.0266
     18  CG1      117.8660   19.9930  171.2170 C.3    56  VAL56       0.0020
     19  CG2      119.2500   19.3830  169.2380 C.3    56  VAL56       0.0020
     20  N        116.6680   22.9520  170.0210 N.am   57  TYR57      -0.1976
     21  CA       115.3180   23.1840  169.4970 C.3    57  TYR57       0.1639
     22  C        115.2780   24.2380  168.3930 C.2    57  TYR57       0.2290
     23  O        114.2620   24.4000  167.7040 O.2    57  TYR57      -0.2864
     24  CB       114.3890   23.6820  170.5930 C.3    57  TYR57       0.0560
     25  CG       114.2180   22.7620  171.7990 C.ar   57  TYR57      -0.0198
     26  CD1      114.5760   21.4200  171.7340 C.ar   57  TYR57      -0.0009
     27  CD2      113.6540   23.2370  172.9610 C.ar   57  TYR57      -0.0009
     28  CE1      114.4420   20.5460  172.8560 C.ar   57  TYR57       0.0417
     29  CE2      113.5020   22.3850  174.0860 C.ar   57  TYR57       0.0417
     30  CZ       113.8850   21.0350  174.0020 C.ar   57  TYR57       0.1957
     31  OH       113.7770   20.1730  175.1010 O.3    57  TYR57      -0.2866
     32  N        123.9210   21.2050  174.3990 N.3    88  TRP88      -0.1241
     33  CA       123.7890   20.0120  173.4860 C.3    88  TRP88       0.1605
     34  C        125.0920   19.1760  173.4970 C.2    88  TRP88       0.2264
     35  O        126.1790   19.6760  173.7650 O.2    88  TRP88      -0.2867
     36  CB       123.3170   20.4230  172.1030 C.3    88  TRP88       0.0550
     37  CG       123.0310   19.1530  171.2510 C.ar   88  TRP88       0.0003
     38  CD1      123.6700   18.7470  170.1580 C.ar   88  TRP88       0.0946
     39  CD2      122.1360   18.1160  171.6310 C.ar   88  TRP88       0.0152
     40  NE1      123.2160   17.4910  169.7590 N.ar   88  TRP88      -0.2442
     41  CE2      122.2790   17.0750  170.6880 C.ar   88  TRP88       0.0810
     42  CE3      121.2270   17.9550  172.6930 C.ar   88  TRP88       0.0012
     43  CZ2      121.5160   15.8980  170.7580 C.ar   88  TRP88       0.0191
     44  CZ3      120.4970   16.7870  172.8080 C.ar   88  TRP88       0.0001
     45  CH2      120.6030   15.7910  171.8180 C.ar   88  TRP88       0.0015
     46  N        122.0260   18.4560  178.4490 N.3   119  HIS119     -0.1241
     47  CA       120.7740   18.0140  177.7970 C.3   119  HIS119      0.1621
     48  C        120.6900   16.4660  177.7440 C.2   119  HIS119      0.2264
     49  O        119.6310   15.9050  178.0840 O.2   119  HIS119     -0.2867
     50  CB       120.7030   18.5620  176.3840 C.3   119  HIS119      0.0745
     51  CG       119.3160   18.5650  175.8310 C.ar  119  HIS119      0.0817
     52  ND1      118.9340   19.4240  174.8240 N.ar  119  HIS119     -0.2268
     53  CD2      118.2340   17.7880  176.1060 C.ar  119  HIS119      0.1154
     54  CE1      117.6640   19.2100  174.5090 C.ar  119  HIS119      0.1986
     55  NE2      117.2230   18.2330  175.3050 N.ar  119  HIS119     -0.2212
     56  N        123.5890   16.5410  165.2810 N.3   131  ILE131     -0.1245
     57  CA       123.7450   15.0780  165.1800 C.3   131  ILE131      0.1561
     58  C        124.6790   14.7990  163.9990 C.2   131  ILE131      0.2260
     59  O        124.2440   14.5300  162.9010 O.2   131  ILE131     -0.2867
     60  CB       122.3840   14.4010  164.9980 C.3   131  ILE131      0.0252
     61  CG1      121.4860   14.6870  166.2620 C.3   131  ILE131      0.0019
     62  CG2      122.5300   12.9280  164.8750 C.3   131  ILE131      0.0019
     63  CD1      120.0610   14.1550  165.9360 C.3   131  ILE131      0.0001
     64  N        105.1560   15.0880  172.2800 N.3   224  HIS224     -0.1241
     65  CA       104.7820   15.6660  171.0010 C.3   224  HIS224      0.1621
     66  C        104.4440   14.5100  170.0430 C.2   224  HIS224      0.2264
     67  O        103.7680   14.7590  169.0600 O.2   224  HIS224     -0.2867
     68  CB       105.9340   16.4880  170.4380 C.3   224  HIS224      0.0745
     69  CG       107.2560   15.8050  170.5580 C.ar  224  HIS224      0.0817
     70  ND1      107.5640   14.6260  169.8810 N.ar  224  HIS224     -0.2268
     71  CD2      108.3520   16.1210  171.3040 C.ar  224  HIS224      0.1154
     72  CE1      108.7970   14.2550  170.2140 C.ar  224  HIS224      0.1986
     73  NE2      109.2850   15.1300  171.1040 N.ar  224  HIS224     -0.2212
     74  N        106.1340   13.0480  167.9800 N.3   226  GLU226     -0.1245
     75  CA       106.7540   13.2740  166.6780 C.3   226  GLU226      0.1567
     76  C        107.5490   12.0310  166.2000 C.2   226  GLU226      0.2260
     77  O        108.3840   11.4760  166.9340 O.2   226  GLU226     -0.2867
     78  CB       107.6770   14.5210  166.7060 C.3   226  GLU226      0.0388
     79  CG       108.4370   14.7120  165.3900 C.3   226  GLU226      0.1160
     80  CD       109.2740   15.9840  165.4680 C.2   226  GLU226      0.3649
     81  OE1      109.7700   16.3530  166.5660 O.co2 226  GLU226     -0.2457
     82  OE2      109.4080   16.6480  164.4190 O.co2 226  GLU226     -0.2457
     83  N        110.9270    9.9940  166.4280 N.3   229  TRP229     -0.1241
     84  CA       111.3090   10.0620  167.8370 C.3   229  TRP229      0.1605
     85  C        110.4190    9.1890  168.6830 C.2   229  TRP229      0.2264
     86  O        110.9200    8.5560  169.6390 O.2   229  TRP229     -0.2867
     87  CB       111.2970   11.5100  168.3450 C.3   229  TRP229      0.0550
     88  CG       112.1520   12.3920  167.5030 C.ar  229  TRP229      0.0003
     89  CD1      111.7250   13.3270  166.5620 C.ar  229  TRP229      0.0946
     90  CD2      113.5810   12.4000  167.4600 C.ar  229  TRP229      0.0152
     91  NE1      112.8160   13.9170  165.9410 N.ar  229  TRP229     -0.2442
     92  CE2      113.9700   13.3670  166.4580 C.ar  229  TRP229      0.0810
     93  CE3      114.5980   11.7290  168.2080 C.ar  229  TRP229      0.0012
     94  CZ2      115.3300   13.6340  166.1390 C.ar  229  TRP229      0.0191
     95  CZ3      115.9490   12.0110  167.9080 C.ar  229  TRP229      0.0001
     96  CH2      116.3010   12.9720  166.8780 C.ar  229  TRP229      0.0015
     97  N        109.8900    8.5440  174.7640 N.3   308  LEU308     -0.1245
     98  CA       111.0960    9.1130  174.1490 C.3   308  LEU308      0.1561
     99  C        112.3540    8.3500  174.5470 C.2   308  LEU308      0.2260
    100  O        112.9700    8.6170  175.5700 O.2   308  LEU308     -0.2867
    101  CB       111.1490   10.5630  174.5820 C.3   308  LEU308      0.0270
    102  CG       111.6200   11.6030  173.5440 C.3   308  LEU308      0.0019
    103  CD1      113.1120   11.8490  173.7740 C.3   308  LEU308      0.0001
    104  CD2      111.3460   11.3870  172.0500 C.3   308  LEU308      0.0001
    105  N        115.1890    8.0540  172.5370 N.3   310  LEU310     -0.1245
    106  CA       116.3940    8.6590  172.0090 C.3   310  LEU310      0.1561
    107  C        117.4120    7.5490  171.7140 C.2   310  LEU310      0.2260
    108  O        118.6450    7.7180  171.8720 O.2   310  LEU310     -0.2867
    109  CB       116.9800    9.6400  172.9910 C.3   310  LEU310      0.0270
    110  CG       116.1080   10.8830  173.3880 C.3   310  LEU310      0.0019
    111  CD1      116.7980   11.7970  174.4480 C.3   310  LEU310      0.0001
    112  CD2      115.7320   11.6830  172.1230 C.3   310  LEU310      0.0001
    113  N        120.9270    7.2630  170.0820 N.3   313  PHE313     -0.1241
    114  CA       122.1170    7.5200  170.8550 C.3   313  PHE313      0.1605
    115  C        122.4880    6.3220  171.7480 C.2   313  PHE313      0.2264
    116  O        123.4060    6.4110  172.5740 O.2   313  PHE313     -0.2867
    117  CB       121.8530    8.7060  171.7350 C.3   313  PHE313      0.0534
    118  CG       121.6360    9.9360  170.9810 C.ar  313  PHE313     -0.0203
    119  CD1      122.5890   10.3660  170.0130 C.ar  313  PHE313     -0.0042
    120  CD2      120.4800   10.6580  171.1710 C.ar  313  PHE313     -0.0042
    121  CE1      122.4280   11.5400  169.3440 C.ar  313  PHE313     -0.0003
    122  CE2      120.2460   11.8380  170.4140 C.ar  313  PHE313     -0.0003
    123  CZ       121.2240   12.3080  169.5520 C.ar  313  PHE313     -0.0000
@<TRIPOS>BOND
     1    59    58    2
     2    58    57    1
     3    82    80   ar
     4    62    60    1
     5    60    57    1
     6    60    61    1
     7    57    56    1
     8    79    80    1
     9    79    78    1
    10    80    81   ar
    11    63    61    1
    12    91    92   ar
    13    91    89   ar
    14    94    92   ar
    15    94    96   ar
    16    76    75    1
    17    76    77    2
    18    83    84    1
    19    92    90   ar
    20    89    88   ar
    21    75    78    1
    22    75    74    1
    23    96    95   ar
    24    12    11    1
    25    90    88   ar
    26    90    93   ar
    27    88    87    1
    28    23    22    2
    29    84    87    1
    30    84    85    1
    31    95    93   ar
    32    11     9   ar
    33    11    10   ar
    34    16    15    2
    35    22    21    1
    36     9     7   ar
    37    85    86    2
    38    10     8   ar
    39    67    66    2
    40    19    17    1
    41    15    14    1
    42    15    20   am
    43   121   123   ar
    44   121   119   ar
    45    21    20    1
    46    21    24    1
    47   123   122   ar
    48     7     6   ar
    49    40    38   ar
    50    40    41   ar
    51    14    17    1
    52    14    13    1
    53    70    72   ar
    54    70    69   ar
    55   119   118   ar
    56    66    65    1
    57   113   114    1
    58     8     6   ar
    59    38    37   ar
    60    72    73   ar
    61    17    18    1
    62   122   120   ar
    63    68    69    1
    64    68    65    1
    65     3     4    2
    66     3     2    1
    67     6     5    1
    68    69    71   ar
    69    24    25    1
    70    41    43   ar
    71    41    39   ar
    72    43    45   ar
    73   114   117    1
    74   114   115    1
    75   118   120   ar
    76   118   117    1
    77    65    64    1
    78    73    71   ar
    79    37    39   ar
    80    37    36    1
    81     2     5    1
    82     2     1    1
    83    39    42   ar
    84   107   108    2
    85   107   106    1
    86    26    25   ar
    87    26    28   ar
    88   115   116    2
    89    25    27   ar
    90    45    44   ar
    91   106   105    1
    92   106   109    1
    93   104   102    1
    94    36    33    1
    95   112   110    1
    96    42    44   ar
    97    28    30   ar
    98    27    29   ar
    99   109   110    1
   100   110   111    1
   101    33    34    1
   102    33    32    1
   103    34    35    2
   104   102   103    1
   105   102   101    1
   106    30    29   ar
   107    30    31    1
   108    98    99    1
   109    98   101    1
   110    98    97    1
   111    54    52   ar
   112    54    55   ar
   113    99   100    2
   114    52    51   ar
   115    55    53   ar
   116    51    53   ar
   117    51    50    1
   118    50    47    1
   119    48    47    1
   120    48    49    2
   121    47    46    1
