@<TRIPOS>MOLECULE
tmp/1xjdA00.pdb
 164 153 0 0 0
SMALL
GASTEIGER

@<TRIPOS>ATOM
      1  N         60.8930    4.3730   -0.2080 N.3    10  LEU10      -0.1231
      2  CA        60.4260    4.6770    1.1430 C.3    10  LEU10       0.1693
      3  C         59.2680    3.7690    1.5380 C.2    10  LEU10       0.2593
      4  O         59.1310    3.3960    2.7030 O.2    10  LEU10      -0.2718
      5  CB        59.9890    6.1400    1.2400 C.3    10  LEU10       0.0284
      6  CG        61.0640    7.2050    1.0160 C.3    10  LEU10       0.0019
      7  CD1       60.4290    8.5950    1.0200 C.3    10  LEU10       0.0001
      8  CD2       62.1220    7.0970    2.1010 C.3    10  LEU10       0.0001
      9  N         58.4360    3.4190    0.5660 N.am   11  GLY11      -0.1942
     10  CA        57.3070    2.5490    0.8430 C.3    11  GLY11       0.2014
     11  C         56.2210    2.6480   -0.2070 C.2    11  GLY11       0.2639
     12  O         56.4040    3.2820   -1.2460 O.2    11  GLY11      -0.2714
     13  N         55.0850    2.0170    0.0640 N.am   12  LYS12      -0.1963
     14  CA        53.9550    2.0410   -0.8570 C.3    12  LYS12       0.1728
     15  C         52.7440    2.6510   -0.1590 C.2    12  LYS12       0.2616
     16  O         52.3120    2.1710    0.8910 O.2    12  LYS12      -0.2715
     17  CB        53.6360    0.6230   -1.3360 C.3    12  LYS12       0.0311
     18  CG        53.5210   -0.3880   -0.2150 C.3    12  LYS12       0.0038
     19  CD        53.3660   -1.7970   -0.7530 C.3    12  LYS12       0.0206
     20  CE        53.3070   -2.8130    0.3820 C.3    12  LYS12       0.1093
     21  NZ        53.2280   -4.2120   -0.1290 N.3    12  LYS12      -0.1314
     22  N         52.2100    3.7230   -0.7330 N.am   13  GLY13      -0.1955
     23  CA        51.0590    4.3720   -0.1300 C.3    13  GLY13       0.1869
     24  C         49.7750    4.0260   -0.8490 C.2    13  GLY13       0.2309
     25  O         49.7700    3.1050   -1.6750 O.2    13  GLY13      -0.2863
     26  N         56.5520    5.0620   -3.2950 N.3    18  VAL18      -0.1245
     27  CA        57.1680    6.3380   -2.9410 C.3    18  VAL18       0.1561
     28  C         58.6740    6.1630   -2.7910 C.2    18  VAL18       0.2260
     29  O         59.1370    5.2860   -2.0610 O.2    18  VAL18      -0.2867
     30  CB        56.5800    6.9050   -1.6380 C.3    18  VAL18       0.0252
     31  CG1       57.2490    8.2380   -1.3040 C.3    18  VAL18       0.0019
     32  CG2       55.0720    7.0790   -1.7930 C.3    18  VAL18       0.0019
     33  N         60.3300   13.4020   -1.9450 N.3    31  ALA31      -0.1245
     34  CA        59.6880   12.1080   -1.8110 C.3    31  ALA31       0.1562
     35  C         58.7610   12.0590   -3.0140 C.2    31  ALA31       0.2260
     36  O         57.8510   12.8830   -3.1320 O.2    31  ALA31      -0.2867
     37  CB        58.8980   12.0320   -0.5310 C.3    31  ALA31       0.0290
     38  N         56.0010   10.0030   -5.3130 N.3    33  LYS33      -0.1245
     39  CA        55.0210    8.9350   -5.3770 C.3    33  LYS33       0.1561
     40  C         54.8720    8.6370   -6.8640 C.2    33  LYS33       0.2260
     41  O         54.5310    9.5260   -7.6440 O.2    33  LYS33      -0.2867
     42  CB        53.6890    9.4150   -4.8020 C.3    33  LYS33       0.0271
     43  CG        52.5860    8.3630   -4.7570 C.3    33  LYS33       0.0035
     44  CD        51.4150    8.8920   -3.9450 C.3    33  LYS33       0.0206
     45  CE        50.3770    7.8270   -3.6680 C.3    33  LYS33       0.1093
     46  NZ        49.4910    8.2080   -2.5390 N.3    33  LYS33      -0.1314
     47  N         43.9490   13.0840   -4.4940 N.3    52  GLU52      -0.1245
     48  CA        45.2000   13.2810   -3.7740 C.3    52  GLU52       0.1567
     49  C         45.9180   14.5380   -4.2280 C.2    52  GLU52       0.2260
     50  O         46.4160   15.3010   -3.4040 O.2    52  GLU52      -0.2867
     51  CB        46.1240   12.0670   -3.9280 C.3    52  GLU52       0.0388
     52  CG        47.4680   12.2400   -3.2220 C.3    52  GLU52       0.1160
     53  CD        48.1150   10.9180   -2.8280 C.2    52  GLU52       0.3649
     54  OE1       48.1000    9.9800   -3.6530 O.co2  52  GLU52      -0.2457
     55  OE2       48.6460   10.8260   -1.6920 O.co2  52  GLU52      -0.2457
     56  N         51.3330   17.1660    4.6180 N.3    66  THR66      -0.1218
     57  CA        52.4240   17.0370    3.6580 C.3    66  THR66       0.1862
     58  C         52.1670   17.9290    2.4400 C.2    66  THR66       0.2287
     59  O         51.0560   17.9500    1.9040 O.2    66  THR66      -0.2866
     60  CB        52.5720   15.5690    3.1840 C.3    66  THR66       0.1770
     61  OG1       52.7510   14.7150    4.3220 O.3    66  THR66      -0.2211
     62  CG2       53.7750   15.4210    2.2430 C.3    66  THR66       0.0375
     63  N         56.6970   15.4330   -3.6540 N.3    82  MET82      -0.1230
     64  CA        56.3750   16.0120   -2.3550 C.3    82  MET82       0.1702
     65  C         57.6170   16.3310   -1.5330 C.2    82  MET82       0.2592
     66  O         58.7210   15.8890   -1.8560 O.2    82  MET82      -0.2718
     67  CB        55.5020   15.0390   -1.5630 C.3    82  MET82       0.0401
     68  CG        54.1840   14.6830   -2.2380 C.3    82  MET82       0.0596
     69  SD        53.4130   13.2160   -1.5060 S.3    82  MET82      -0.1393
     70  CE        54.2310   11.9260   -2.4460 C.3    82  MET82       0.0692
     71  N         57.4290   17.0970   -0.4610 N.am   83  GLU83      -0.1966
     72  CA        58.5380   17.4430    0.4170 C.3    83  GLU83       0.1733
     73  C         59.0160   16.1700    1.1170 C.2    83  GLU83       0.2616
     74  O         58.2250   15.2630    1.3950 O.2    83  GLU83      -0.2715
     75  CB        58.0980   18.4790    1.4540 C.3    83  GLU83       0.0429
     76  CG        57.0590   17.9850    2.4470 C.3    83  GLU83       0.1163
     77  CD        56.5920   19.0800    3.3880 C.2    83  GLU83       0.3649
     78  OE1       57.4540   19.7980    3.9300 O.co2  83  GLU83      -0.2457
     79  OE2       55.3660   19.2240    3.5970 O.co2  83  GLU83      -0.2457
     80  N         60.3160   16.0980    1.3730 N.am   84  TYR84      -0.1960
     81  CA        60.9080   14.9490    2.0400 C.3    84  TYR84       0.1771
     82  C         60.9850   15.2440    3.5400 C.2    84  TYR84       0.2619
     83  O         61.5090   16.2740    3.9600 O.2    84  TYR84      -0.2715
     84  CB        62.2960   14.6830    1.4420 C.3    84  TYR84       0.0574
     85  CG        63.2270   13.8440    2.2910 C.ar   84  TYR84      -0.0198
     86  CD1       62.8410   12.5890    2.7620 C.ar   84  TYR84      -0.0009
     87  CD2       64.5060   14.3040    2.6080 C.ar   84  TYR84      -0.0009
     88  CE1       63.7060   11.8100    3.5290 C.ar   84  TYR84       0.0417
     89  CE2       65.3770   13.5340    3.3740 C.ar   84  TYR84       0.0417
     90  CZ        64.9700   12.2890    3.8310 C.ar   84  TYR84       0.1957
     91  OH        65.8270   11.5300    4.5940 O.3    84  TYR84      -0.2866
     92  N         60.4370   14.3350    4.3380 N.am   85  LEU85      -0.1963
     93  CA        60.3880   14.4680    5.7910 C.3    85  LEU85       0.1728
     94  C         61.2620   13.3560    6.3700 C.2    85  LEU85       0.2616
     95  O         60.8360   12.2070    6.4520 O.2    85  LEU85      -0.2715
     96  CB        58.9270   14.3290    6.2360 C.3    85  LEU85       0.0311
     97  CG        57.9880   15.2650    5.4440 C.3    85  LEU85       0.0022
     98  CD1       56.5190   14.8580    5.6060 C.3    85  LEU85       0.0001
     99  CD2       58.2060   16.6990    5.9120 C.3    85  LEU85       0.0001
    100  N         62.4810   13.7080    6.7740 N.am   86  ASN86      -0.1972
    101  CA        63.4410   12.7210    7.2680 C.3    86  ASN86       0.1688
    102  C         63.2280   12.0830    8.6310 C.2    86  ASN86       0.2292
    103  O         64.0390   11.2590    9.0520 O.2    86  ASN86      -0.2864
    104  CB        64.8690   13.2870    7.2190 C.3    86  ASN86       0.1181
    105  CG        65.0910   14.4300    8.1960 C.2    86  ASN86       0.2629
    106  OD1       64.5040   14.4710    9.2820 O.2    86  ASN86      -0.2716
    107  ND2       65.9660   15.3550    7.8230 N.am   86  ASN86      -0.0877
    108  N         60.7830   10.0530    9.4540 N.3    88  GLY88      -0.1210
    109  CA        60.1800    8.7330    9.3530 C.3    88  GLY88       0.1956
    110  C         58.7430    8.7510    9.8650 C.2    88  GLY88       0.2611
    111  O         58.2730    9.7760   10.3710 O.2    88  GLY88      -0.2717
    112  N         58.0400    7.6280    9.7460 N.am   89  ASP89      -0.1973
    113  CA        56.6570    7.5570   10.1990 C.3    89  ASP89       0.1709
    114  C         56.5530    7.1450   11.6670 C.2    89  ASP89       0.2293
    115  O         57.4560    6.5050   12.2100 O.2    89  ASP89      -0.2864
    116  CB        55.8670    6.5850    9.3170 C.3    89  ASP89       0.1436
    117  CG        56.3830    5.1640    9.4090 C.2    89  ASP89       0.3671
    118  OD1       55.7950    4.3680   10.1720 O.co2  89  ASP89      -0.2456
    119  OD2       57.3820    4.8480    8.7250 O.co2  89  ASP89      -0.2456
    120  N         54.5140    4.9660   13.0580 N.3    91  MET91      -0.1245
    121  CA        54.3800    3.5280   13.2570 C.3    91  MET91       0.1570
    122  C         55.7620    2.9420   13.5350 C.2    91  MET91       0.2261
    123  O         55.9360    2.1500   14.4570 O.2    91  MET91      -0.2867
    124  CB        53.7740    2.8610   12.0200 C.3    91  MET91       0.0387
    125  CG        53.6450    1.3470   12.1300 C.3    91  MET91       0.0595
    126  SD        52.6390    0.8150   13.5340 S.3    91  MET91      -0.1393
    127  CE        51.0450    0.6590   12.7850 C.3    91  MET91       0.0692
    128  N         50.7990    4.8160   10.5070 N.3   132  ASP132     -0.1225
    129  CA        51.5640    4.6500    9.2770 C.3   132  ASP132      0.1805
    130  C         51.5580    5.9210    8.4360 C.2   132  ASP132      0.2597
    131  O         52.4950    6.1700    7.6660 O.2   132  ASP132     -0.2718
    132  CB        50.9660    3.5180    8.4400 C.3   132  ASP132      0.1424
    133  CG        50.7530    2.2500    9.2390 C.2   132  ASP132      0.3668
    134  OD1       49.9970    2.2740   10.2480 O.co2 132  ASP132     -0.2456
    135  OD2       51.3390    1.2230    8.8480 O.co2 132  ASP132     -0.2456
    136  N         50.5010    6.7190    8.5760 N.am  133  ASN133     -0.1974
    137  CA        50.3800    7.9430    7.7980 C.3   133  ASN133      0.1688
    138  C         50.8070    9.2250    8.4900 C.2   133  ASN133      0.2292
    139  O         50.5600   10.3130    7.9740 O.2   133  ASN133     -0.2864
    140  CB        48.9500    8.0910    7.2660 C.3   133  ASN133      0.1181
    141  CG        48.6300    7.0690    6.1970 C.2   133  ASN133      0.2629
    142  OD1       49.5350    6.5180    5.5730 O.2   133  ASN133     -0.2716
    143  ND2       47.3480    6.8180    5.9680 N.am  133  ASN133     -0.0877
    144  N         53.9760   11.2980    9.5880 N.3   135  LEU135     -0.1245
    145  CA        55.4180   11.4100    9.4330 C.3   135  LEU135      0.1561
    146  C         55.9670   12.5260   10.3040 C.2   135  LEU135      0.2260
    147  O         55.2460   13.4530   10.6760 O.2   135  LEU135     -0.2867
    148  CB        55.7690   11.6950    7.9720 C.3   135  LEU135      0.0270
    149  CG        55.3640   10.6530    6.9280 C.3   135  LEU135      0.0019
    150  CD1       55.4190   11.2890    5.5490 C.3   135  LEU135      0.0001
    151  CD2       56.2790    9.4290    7.0140 C.3   135  LEU135      0.0001
    152  N         50.1470   12.3800    5.9490 N.3   145  ALA145     -0.1231
    153  CA        50.4640   12.0340    4.5680 C.3   145  ALA145      0.1694
    154  C         49.4910   11.0220    3.9680 C.2   145  ALA145      0.2592
    155  O         48.7630   10.3430    4.6920 O.2   145  ALA145     -0.2718
    156  CB        51.8930   11.4860    4.4830 C.3   145  ALA145      0.0304
    157  N         49.5010   10.9350    2.6390 N.am  146  ASP146     -0.1974
    158  CA        48.6530   10.0240    1.8780 C.3   146  ASP146      0.1709
    159  C         47.1920   10.4280    1.9400 C.2   146  ASP146      0.2293
    160  O         46.4720   10.0490    2.8630 O.2   146  ASP146     -0.2864
    161  CB        48.7940    8.5800    2.3730 C.3   146  ASP146      0.1436
    162  CG        48.3190    7.5710    1.3390 C.2   146  ASP146      0.3671
    163  OD1       47.5470    7.9690    0.4410 O.co2 146  ASP146     -0.2456
    164  OD2       48.7040    6.3820    1.4170 O.co2 146  ASP146     -0.2456
@<TRIPOS>BOND
     1    41    40    2
     2    40    39    1
     3    39    38    1
     4    39    42    1
     5    42    43    1
     6    43    44    1
     7    47    48    1
     8    49    48    1
     9    49    50    2
    10    44    45    1
    11    51    48    1
    12    51    52    1
    13    45    46    1
    14    63    64    1
    15    54    53   ar
    16    26    27    1
    17    52    53    1
    18    36    35    2
    19    35    34    1
    20    27    28    1
    21    27    30    1
    22    53    55   ar
    23    28    29    2
    24    70    69    1
    25    64    67    1
    26    64    65    1
    27    68    67    1
    28    68    69    1
    29    33    34    1
    30    66    65    2
    31    34    37    1
    32    32    30    1
    33    25    24    2
    34    30    31    1
    35    65    71   am
    36    17    14    1
    37    17    18    1
    38    12    11    2
    39    14    15    1
    40    14    13    1
    41    24    23    1
    42    19    18    1
    43    19    20    1
    44    22    15   am
    45    22    23    1
    46    71    72    1
    47     1     2    1
    48    11    13   am
    49    11    10    1
    50    15    16    2
    51    21    20    1
    52    72    73    1
    53    72    75    1
    54   163   162   ar
    55     9    10    1
    56     9     3   am
    57     6     7    1
    58     6     5    1
    59     6     8    1
    60    73    80   am
    61    73    74    2
    62     2     5    1
    63     2     3    1
    64   162   164   ar
    65   162   161    1
    66    80    81    1
    67    84    81    1
    68    84    85    1
    69    75    76    1
    70     3     4    2
    71   158   159    1
    72   158   161    1
    73   158   157    1
    74    59    58    2
    75   159   160    2
    76    81    82    1
    77    62    60    1
    78    85    87   ar
    79    85    86   ar
    80    58    57    1
    81    76    77    1
    82    87    89   ar
    83   157   154   am
    84    86    88   ar
    85    60    57    1
    86    60    61    1
    87    89    90   ar
    88    77    79   ar
    89    77    78   ar
    90    88    90   ar
    91    82    83    2
    92    82    92   am
    93    57    56    1
    94    90    91    1
    95   154   153    1
    96   154   155    2
    97    92    93    1
    98   156   153    1
    99   153   152    1
   100    97    98    1
   101    97    99    1
   102    97    96    1
   103   150   149    1
   104   142   141    2
   105    93    96    1
   106    93    94    1
   107   143   141   am
   108   141   140    1
   109    94    95    2
   110    94   100   am
   111   100   101    1
   112   149   151    1
   113   149   148    1
   114   104   101    1
   115   104   105    1
   116   140   137    1
   117   101   102    1
   118   131   130    2
   119   137   138    1
   120   137   136    1
   121   107   105   am
   122   148   145    1
   123   139   138    2
   124   105   106    2
   125   130   136   am
   126   130   129    1
   127   132   133    1
   128   132   129    1
   129   102   103    2
   130   119   117   ar
   131   135   133   ar
   132   133   134   ar
   133   129   128    1
   134   116   117    1
   135   116   113    1
   136   109   108    1
   137   109   110    1
   138   117   118   ar
   139   145   144    1
   140   145   146    1
   141   112   110   am
   142   112   113    1
   143   110   111    2
   144   113   114    1
   145   146   147    2
   146   114   115    2
   147   124   125    1
   148   124   121    1
   149   125   126    1
   150   127   126    1
   151   120   121    1
   152   121   122    1
   153   122   123    2
