@<TRIPOS>MOLECULE
tmp/1xjeA00.pdb
 157 151 0 0 0
SMALL
GASTEIGER

@<TRIPOS>ATOM
      1  N        -83.9250  -62.1120    9.2450 N.3    90  ASN90      -0.1225
      2  CA       -84.6350  -62.1060    7.9560 C.3    90  ASN90       0.1785
      3  C        -84.1400  -63.1460    6.9670 C.2    90  ASN90       0.2598
      4  O        -82.9670  -63.5080    6.9540 O.2    90  ASN90      -0.2718
      5  CB       -84.7730  -60.6970    7.3370 C.3    90  ASN90       0.1169
      6  CG       -83.4480  -60.0050    6.9790 C.2    90  ASN90       0.2627
      7  OD1      -83.4550  -58.7940    6.7520 O.2    90  ASN90      -0.2716
      8  ND2      -82.3170  -60.7440    6.9310 N.am   90  ASN90      -0.0877
      9  N        -85.0550  -63.6390    6.1280 N.am   91  SER91      -0.1938
     10  CA       -84.7530  -64.7800    5.2730 C.3    91  SER91       0.2040
     11  C        -83.4150  -64.6900    4.5140 C.2    91  SER91       0.2485
     12  O        -82.7210  -65.6820    4.4250 O.2    91  SER91      -0.2729
     13  CB       -85.9180  -65.0760    4.3290 C.3    91  SER91       0.2129
     14  OG       -87.0010  -65.5860    5.0870 O.3    91  SER91      -0.2179
     15  N        -83.0870  -63.5430    3.9220 N.am   92  PRO92      -0.2726
     16  CA       -81.8560  -63.5100    3.1110 C.3    92  PRO92       0.1402
     17  C        -80.5580  -63.8060    3.8630 C.2    92  PRO92       0.2269
     18  O        -79.6540  -64.3460    3.2740 O.2    92  PRO92      -0.2865
     19  CB       -81.8260  -62.0960    2.5710 C.3    92  PRO92       0.0296
     20  CG       -83.2750  -61.6360    2.6110 C.3    92  PRO92       0.0237
     21  CD       -83.7920  -62.2610    3.8610 C.3    92  PRO92       0.0939
     22  N        -82.9440  -57.6380    3.7950 N.3   133  ALA133     -0.1231
     23  CA       -84.2550  -57.7830    3.1330 C.3   133  ALA133      0.1694
     24  C        -84.8450  -56.5270    2.4830 C.2   133  ALA133      0.2592
     25  O        -85.7960  -56.6550    1.7110 O.2   133  ALA133     -0.2718
     26  CB       -85.2650  -58.2970    4.1390 C.3   133  ALA133      0.0304
     27  N        -84.3620  -55.3310    2.8530 N.am  134  CYS134     -0.1970
     28  CA       -85.0430  -54.0540    2.5860 C.3   134  CYS134      0.1712
     29  C        -84.1440  -53.0440    1.9070 C.2   134  CYS134      0.2296
     30  O        -83.0460  -52.7500    2.4330 O.2   134  CYS134     -0.2864
     31  CB       -85.5200  -53.4140    3.8710 C.3   134  CYS134      0.0983
     32  SG       -86.5090  -54.5160    4.9300 S.3   134  CYS134     -0.0798
     33  N        -83.1310  -57.7940   -6.8250 N.3   157  THR157     -0.1218
     34  CA       -84.0200  -58.9440   -6.8830 C.3   157  THR157      0.1862
     35  C        -83.3410  -60.2860   -7.0550 C.2   157  THR157      0.2287
     36  O        -83.8250  -61.2910   -6.5050 O.2   157  THR157     -0.2866
     37  CB       -85.0200  -58.7350   -8.0420 C.3   157  THR157      0.1770
     38  OG1      -85.6570  -57.5010   -7.7650 O.3   157  THR157     -0.2211
     39  CG2      -86.0450  -59.8520   -8.1470 C.3   157  THR157      0.0375
     40  N        -82.2210  -61.5080   -3.7340 N.3   160  GLY160     -0.1210
     41  CA       -83.3270  -61.7580   -2.8690 C.3   160  GLY160      0.1956
     42  C        -83.7560  -60.5840   -2.0050 C.2   160  GLY160      0.2612
     43  O        -84.4580  -60.7900   -1.0350 O.2   160  GLY160     -0.2717
     44  N        -83.3480  -59.3620   -2.3330 N.am  161  GLY161     -0.1942
     45  CA       -83.8580  -58.2060   -1.6440 C.3   161  GLY161      0.2014
     46  C        -85.1820  -57.6590   -2.1450 C.2   161  GLY161      0.2639
     47  O        -85.5490  -57.8540   -3.2810 O.2   161  GLY161     -0.2714
     48  N        -85.9020  -56.9860   -1.2730 N.am  162  GLY162     -0.1954
     49  CA       -87.1020  -56.2180   -1.6510 C.3   162  GLY162      0.1869
     50  C        -86.8000  -54.7230   -1.7490 C.2   162  GLY162      0.2309
     51  O        -86.2500  -54.1450   -0.8320 O.2   162  GLY162     -0.2863
     52  N        -87.5540  -67.2390   -3.9280 N.3   207  ARG207     -0.1231
     53  CA       -88.0520  -65.8860   -3.6450 C.3   207  ARG207      0.1694
     54  C        -88.3190  -65.0020   -4.9240 C.2   207  ARG207      0.2592
     55  O        -87.3820  -64.6320   -5.5990 O.2   207  ARG207     -0.2718
     56  CB       -87.0150  -65.2840   -2.6700 C.3   207  ARG207      0.0321
     57  CG       -87.1360  -63.8380   -2.3660 C.3   207  ARG207      0.0489
     58  CD       -86.5620  -63.4620   -1.0120 C.3   207  ARG207      0.2205
     59  NE       -87.4330  -63.9360    0.0550 N.pl3 207  ARG207     -0.0865
     60  CZ       -87.6410  -63.3110    1.2070 C.cat 207  ARG207      0.5346
     61  NH1      -87.0620  -62.1480    1.4840 N.pl3 207  ARG207      0.1354
     62  NH2      -88.4780  -63.8540    2.0750 N.pl3 207  ARG207      0.1354
     63  N        -89.5890  -64.6620   -5.2250 N.am  208  ARG208     -0.1966
     64  CA       -89.9280  -63.7790   -6.3500 C.3   208  ARG208      0.1729
     65  C        -89.6250  -62.3130   -5.9930 C.2   208  ARG208      0.2617
     66  O        -89.3930  -61.9930   -4.8430 O.2   208  ARG208     -0.2715
     67  CB       -91.4030  -63.9200   -6.7740 C.3   208  ARG208      0.0348
     68  CG       -92.4090  -63.1020   -5.9280 C.3   208  ARG208      0.0492
     69  CD       -93.7950  -63.7680   -5.7830 C.3   208  ARG208      0.2205
     70  NE       -94.8960  -62.8040   -5.9570 N.pl3 208  ARG208     -0.0865
     71  CZ       -95.6500  -62.6670   -7.0560 C.cat 208  ARG208      0.5346
     72  NH1      -95.4710  -63.4490   -8.1200 N.pl3 208  ARG208      0.1354
     73  NH2      -96.6050  -61.7430   -7.0970 N.pl3 208  ARG208      0.1354
     74  N        -89.6660  -61.4230   -6.9790 N.am  209  GLY209     -0.1940
     75  CA       -89.5620  -59.9830   -6.7080 C.3   209  GLY209      0.2014
     76  C        -90.6190  -59.3720   -5.7930 C.2   209  GLY209      0.2638
     77  O        -91.8020  -59.7630   -5.8050 O.2   209  GLY209     -0.2714
     78  N        -90.2220  -58.3640   -5.0260 N.am  210  ALA210     -0.1977
     79  CA       -91.1800  -57.6790   -4.1470 C.3   210  ALA210      0.1597
     80  C        -90.8300  -56.2120   -4.2340 C.2   210  ALA210      0.2287
     81  O        -89.7100  -55.8550   -3.8630 O.2   210  ALA210     -0.2864
     82  CB       -91.0290  -58.1550   -2.7150 C.3   210  ALA210      0.0319
     83  N        -89.3880  -49.7790    1.8380 N.3   314  ASN314     -0.1226
     84  CA       -89.2820  -51.0710    1.1690 C.3   314  ASN314      0.1770
     85  C        -90.7220  -51.6220    0.9520 C.2   314  ASN314      0.2439
     86  O        -91.6680  -50.9880    1.3920 O.2   314  ASN314     -0.2733
     87  CB       -88.4770  -51.9840    2.0510 C.3   314  ASN314      0.1168
     88  CG       -89.2260  -52.3180    3.3320 C.2   314  ASN314      0.2627
     89  OD1      -89.5700  -51.4260    4.0860 O.2   314  ASN314     -0.2716
     90  ND2      -89.4680  -53.6070    3.5690 N.am  314  ASN314     -0.0877
     91  N        -90.8790  -52.7750    0.2830 N.am  315  PRO315     -0.2718
     92  CA       -92.1920  -53.3840   -0.0050 C.3   315  PRO315      0.1535
     93  C        -93.2700  -53.4670    1.0830 C.2   315  PRO315      0.2598
     94  O        -94.4230  -53.1700    0.7760 O.2   315  PRO315     -0.2715
     95  CB       -91.8260  -54.7640   -0.5680 C.3   315  PRO315      0.0310
     96  CG       -90.6240  -54.5060   -1.2360 C.3   315  PRO315      0.0237
     97  CD       -89.8350  -53.5040   -0.4300 C.3   315  PRO315      0.0939
     98  N        -92.9710  -53.8730    2.2990 N.am  316  CYS316     -0.1968
     99  CA       -94.0460  -54.0180    3.2780 C.3   316  CYS316      0.1712
    100  C        -94.2540  -52.8140    4.2070 C.2   316  CYS316      0.2296
    101  O        -95.0410  -52.8850    5.1470 O.2   316  CYS316     -0.2864
    102  CB       -93.8370  -55.3070    4.0550 C.3   316  CYS316      0.0983
    103  SG       -94.1180  -56.7470    2.9680 S.3   316  CYS316     -0.0798
    104  N        -92.2660  -51.2900    6.3120 N.3   318  GLU318     -0.1245
    105  CA       -91.7540  -51.2550    7.6930 C.3   318  GLU318      0.1567
    106  C        -90.4480  -50.4650    7.8810 C.2   318  GLU318      0.2260
    107  O        -90.1530  -50.0920    8.9900 O.2   318  GLU318     -0.2867
    108  CB       -91.6670  -52.6580    8.2940 C.3   318  GLU318      0.0388
    109  CG       -90.6300  -53.6200    7.8590 C.3   318  GLU318      0.1160
    110  CD       -90.9030  -54.4020    6.6060 C.2   318  GLU318      0.3649
    111  OE1      -91.6660  -54.0000    5.7320 O.co2 318  GLU318     -0.2457
    112  OE2      -90.3310  -55.4570    6.4740 O.co2 318  GLU318     -0.2457
    113  N        -82.9400  -57.1690    8.9970 N.3   329  LEU329     -0.1245
    114  CA       -83.9140  -57.3720   10.0290 C.3   329  LEU329      0.1561
    115  C        -83.7100  -58.6880   10.7660 C.2   329  LEU329      0.2260
    116  O        -83.0370  -59.6020   10.2550 O.2   329  LEU329     -0.2867
    117  CB       -85.3300  -57.4190    9.3910 C.3   329  LEU329      0.0270
    118  CG       -85.8180  -56.4260    8.3090 C.3   329  LEU329      0.0019
    119  CD1      -87.2900  -56.7480    7.8980 C.3   329  LEU329      0.0001
    120  CD2      -85.7520  -55.0420    8.7520 C.3   329  LEU329      0.0001
    121  N        -91.7790  -56.4380   11.5270 N.3   483  ALA483     -0.1231
    122  CA       -91.9270  -56.8950   10.1610 C.3   483  ALA483      0.1679
    123  C        -93.1220  -57.8520   10.0720 C.2   483  ALA483      0.2434
    124  O        -93.6620  -58.2810   11.0800 O.2   483  ALA483     -0.2733
    125  CB       -90.6590  -57.6140    9.7540 C.3   483  ALA483      0.0304
    126  N        -93.4810  -58.2410    8.8660 N.am  484  PRO484     -0.2718
    127  CA       -94.5070  -59.2350    8.6460 C.3   484  PRO484      0.1535
    128  C        -94.1630  -60.6340    9.2020 C.2   484  PRO484      0.2599
    129  O        -95.0450  -61.3450    9.7530 O.2   484  PRO484     -0.2715
    130  CB       -94.6390  -59.2340    7.1300 C.3   484  PRO484      0.0310
    131  CG       -94.1530  -57.9630    6.7040 C.3   484  PRO484      0.0237
    132  CD       -93.0120  -57.6610    7.5890 C.3   484  PRO484      0.0939
    133  N        -92.8890  -61.0050    9.0930 N.am  485  THR485     -0.1937
    134  CA       -92.3980  -62.3310    9.4660 C.3   485  THR485      0.2028
    135  C        -93.1390  -63.4860    8.7560 C.2   485  THR485      0.2643
    136  O        -93.3310  -64.5880    9.3030 O.2   485  THR485     -0.2714
    137  CB       -92.3040  -62.5340   10.9950 C.3   485  THR485      0.1808
    138  OG1      -93.6250  -62.5810   11.5640 O.3   485  THR485     -0.2208
    139  CG2      -91.4690  -61.3980   11.6330 C.3   485  THR485      0.0379
    140  N        -93.4750  -63.2590    7.4950 N.am  486  GLY486     -0.1939
    141  CA       -94.2730  -64.2020    6.7670 C.3   486  GLY486      0.2014
    142  C        -93.6270  -65.5660    6.6520 C.2   486  GLY486      0.2640
    143  O        -94.3370  -66.5510    6.6320 O.2   486  GLY486     -0.2714
    144  N        -92.2920  -65.6370    6.5760 N.am  487  SER487     -0.1935
    145  CA       -91.6060  -66.9260    6.5810 C.3   487  SER487      0.2055
    146  C        -90.9660  -67.3080    7.9080 C.2   487  SER487      0.2642
    147  O        -91.0790  -68.4480    8.3420 O.2   487  SER487     -0.2714
    148  CB       -90.5580  -66.9290    5.4810 C.3   487  SER487      0.2130
    149  OG       -91.1850  -66.8460    4.2310 O.3   487  SER487     -0.2179
    150  N        -90.3810  -66.3540    8.6150 N.am  488  ILE488     -0.1977
    151  CA       -89.6380  -66.7330    9.8010 C.3   488  ILE488      0.1596
    152  C        -90.5560  -67.1020   10.9390 C.2   488  ILE488      0.2287
    153  O        -90.1510  -67.9130   11.7920 O.2   488  ILE488     -0.2864
    154  CB       -88.4750  -65.7470   10.1970 C.3   488  ILE488      0.0276
    155  CG1      -88.9820  -64.3480   10.5010 C.3   488  ILE488      0.0022
    156  CG2      -87.4270  -65.6970    9.1060 C.3   488  ILE488      0.0022
    157  CD1      -87.9530  -63.4420   11.1610 C.3   488  ILE488      0.0001
@<TRIPOS>BOND
     1    39    37    1
     2    72    71    1
     3    37    38    1
     4    37    34    1
     5    73    71    1
     6    71    70    2
     7    35    34    1
     8    35    36    2
     9    74    75    1
    10    74    65   am
    11    34    33    1
    12    67    64    1
    13    67    68    1
    14    75    76    1
    15    64    65    1
    16    64    63    1
    17    65    66    2
    18    70    69    1
    19    68    69    1
    20    77    76    2
    21    76    78   am
    22    55    54    2
    23    63    54   am
    24    78    79    1
    25    54    53    1
    26    80    79    1
    27    80    81    2
    28    79    82    1
    29    52    53    1
    30    40    41    1
    31    53    56    1
    32    47    46    2
    33    41    42    1
    34    56    57    1
    35    57    58    1
    36    44    42   am
    37    44    45    1
    38    46    45    1
    39    46    48   am
    40    42    43    2
    41    50    49    1
    42    50    51    2
    43    49    48    1
    44    96    95    1
    45    96    97    1
    46    58    59    1
    47    95    92    1
    48    97    91    1
    49    92    91    1
    50    92    93    1
    51    59    60    2
    52    91    85   am
    53    94    93    2
    54    85    84    1
    55    85    86    2
    56    93    98   am
    57    84    83    1
    58    84    87    1
    59    60    61    1
    60    60    62    1
    61    25    24    2
    62    29    30    2
    63    29    28    1
    64    87    88    1
    65    98    99    1
    66    24    27   am
    67    24    23    1
    68    19    20    1
    69    19    16    1
    70    28    27    1
    71    28    31    1
    72    20    21    1
    73   103   102    1
    74    16    17    1
    75    16    15    1
    76    23    22    1
    77    23    26    1
    78    18    17    2
    79    99   102    1
    80    99   100    1
    81    88    90   am
    82    88    89    2
    83    21    15    1
    84    31    32    1
    85    15    11   am
    86   100   101    2
    87   149   148    1
    88    13    14    1
    89    13    10    1
    90    12    11    2
    91    11    10    1
    92    10     9    1
    93   148   145    1
    94   111   110   ar
    95     9     3   am
    96   104   105    1
    97   112   110   ar
    98   144   145    1
    99   144   142   am
   100   145   146    1
   101   110   109    1
   102   143   142    2
   103   142   141    1
   104   131   130    1
   105   131   132    1
   106     7     6    2
   107   141   140    1
   108     8     6   am
   109     4     3    2
   110     3     2    1
   111     6     5    1
   112   130   127    1
   113     5     2    1
   114   140   135   am
   115   132   126    1
   116   105   106    1
   117   105   108    1
   118   109   108    1
   119   106   107    2
   120   119   118    1
   121   146   147    2
   122   146   150   am
   123     2     1    1
   124   118   120    1
   125   118   117    1
   126   150   151    1
   127   127   126    1
   128   127   128    1
   129   135   136    2
   130   135   134    1
   131   126   123   am
   132   113   114    1
   133   133   128   am
   134   133   134    1
   135   156   154    1
   136   128   129    2
   137   117   114    1
   138   134   137    1
   139   125   122    1
   140   151   154    1
   141   151   152    1
   142   114   115    1
   143   123   122    1
   144   123   124    2
   145   122   121    1
   146   154   155    1
   147   116   115    2
   148   155   157    1
   149   152   153    2
   150   137   138    1
   151   137   139    1
