@<TRIPOS>MOLECULE
tmp/1xjeA02.pdb
 123 119 0 0 0
SMALL
GASTEIGER

@<TRIPOS>ATOM
      1  N        -85.1990  -38.1750  -13.0000 N.3   141  ASP141     -0.1225
      2  CA       -85.9890  -37.7880  -14.1490 C.3   141  ASP141      0.1805
      3  C        -85.1870  -37.7200  -15.4680 C.2   141  ASP141      0.2598
      4  O        -85.2060  -36.6870  -16.1320 O.2   141  ASP141     -0.2718
      5  CB       -86.6130  -36.4240  -13.8210 C.3   141  ASP141      0.1424
      6  CG       -87.7530  -36.0190  -14.7300 C.2   141  ASP141      0.3668
      7  OD1      -88.5440  -36.8230  -15.2360 O.co2 141  ASP141     -0.2456
      8  OD2      -87.8640  -34.8140  -14.9380 O.co2 141  ASP141     -0.2456
      9  N        -84.5860  -38.8400  -15.8630 N.am  142  SER142     -0.1938
     10  CA       -83.8510  -38.9370  -17.1260 C.3   142  SER142      0.2055
     11  C        -83.8710  -40.3890  -17.6070 C.2   142  SER142      0.2643
     12  O        -84.0290  -41.2720  -16.8130 O.2   142  SER142     -0.2714
     13  CB       -82.3950  -38.4490  -16.9880 C.3   142  SER142      0.2130
     14  OG       -81.6390  -39.2910  -16.1680 O.3   142  SER142     -0.2179
     15  N        -83.7320  -40.6180  -18.9150 N.am  143  ILE143     -0.1963
     16  CA       -83.7330  -41.9720  -19.4720 C.3   143  ILE143      0.1727
     17  C        -82.5630  -42.7600  -18.8550 C.2   143  ILE143      0.2616
     18  O        -82.7020  -43.8960  -18.4480 O.2   143  ILE143     -0.2715
     19  CB       -83.6660  -41.9070  -21.0300 C.3   143  ILE143      0.0290
     20  CG1      -85.0250  -41.5220  -21.6260 C.3   143  ILE143      0.0022
     21  CG2      -83.1970  -43.2430  -21.6600 C.3   143  ILE143      0.0023
     22  CD1      -86.1990  -42.3440  -21.1970 C.3   143  ILE143      0.0001
     23  N        -81.4110  -42.1130  -18.7390 N.am  144  GLU144     -0.1977
     24  CA       -80.2260  -42.7380  -18.1920 C.3   144  GLU144      0.1602
     25  C        -80.4690  -43.2240  -16.7410 C.2   144  GLU144      0.2287
     26  O        -80.1190  -44.3420  -16.3830 O.2   144  GLU144     -0.2864
     27  CB       -79.0680  -41.7260  -18.2160 C.3   144  GLU144      0.0415
     28  CG       -77.8350  -42.0670  -17.2930 C.3   144  GLU144      0.1163
     29  CD       -77.0070  -43.2530  -17.7660 C.2   144  GLU144      0.3649
     30  OE1      -76.8950  -43.4400  -19.0090 O.co2 144  GLU144     -0.2457
     31  OE2      -76.4730  -43.9960  -16.8700 O.co2 144  GLU144     -0.2457
     32  N        -83.4670  -43.6190  -15.0750 N.3   146  ILE146     -0.1245
     33  CA       -84.5480  -44.5930  -15.0670 C.3   146  ILE146      0.1561
     34  C        -83.9850  -45.9870  -15.3430 C.2   146  ILE146      0.2260
     35  O        -84.2300  -46.9070  -14.5660 O.2   146  ILE146     -0.2867
     36  CB       -85.6330  -44.2360  -16.0720 C.3   146  ILE146      0.0252
     37  CG1      -86.4300  -43.0120  -15.5930 C.3   146  ILE146      0.0019
     38  CG2      -86.6270  -45.3790  -16.2700 C.3   146  ILE146      0.0019
     39  CD1      -87.2660  -42.3450  -16.6990 C.3   146  ILE146      0.0001
     40  N        -90.1990  -38.2600  -11.6100 N.3   170  LEU170     -0.1231
     41  CA       -90.5450  -38.3930  -13.0090 C.3   170  LEU170      0.1693
     42  C        -91.6260  -37.4260  -13.4230 C.2   170  LEU170      0.2591
     43  O        -92.6510  -37.3980  -12.7940 O.2   170  LEU170     -0.2718
     44  CB       -90.9670  -39.8370  -13.3120 C.3   170  LEU170      0.0284
     45  CG       -89.9070  -40.8910  -12.9440 C.3   170  LEU170      0.0019
     46  CD1      -90.3330  -42.2370  -13.5390 C.3   170  LEU170      0.0001
     47  CD2      -88.5000  -40.5120  -13.3740 C.3   170  LEU170      0.0001
     48  N        -91.3840  -36.6330  -14.4800 N.am  171  ARG171     -0.1980
     49  CA       -92.3130  -35.5750  -14.8880 C.3   171  ARG171      0.1597
     50  C        -93.5790  -36.1860  -15.4120 C.2   171  ARG171      0.2287
     51  O        -93.5650  -37.3130  -15.9590 O.2   171  ARG171     -0.2864
     52  CB       -91.7190  -34.6060  -15.9090 C.3   171  ARG171      0.0334
     53  CG       -91.2260  -35.2140  -17.2530 C.3   171  ARG171      0.0492
     54  CD       -90.3860  -34.2250  -18.0850 C.3   171  ARG171      0.2205
     55  NE       -89.0460  -34.1160  -17.5660 N.pl3 171  ARG171     -0.0865
     56  CZ       -88.0020  -33.6200  -18.2080 C.cat 171  ARG171      0.5346
     57  NH1      -88.1420  -33.1150  -19.3930 N.pl3 171  ARG171      0.1354
     58  NH2      -86.8250  -33.5870  -17.6230 N.pl3 171  ARG171      0.1354
     59  N        -93.0730  -31.6320  -21.5000 N.3   176  PHE176     -0.1227
     60  CA       -92.0930  -31.4470  -22.5510 C.3   176  PHE176      0.1736
     61  C        -90.7820  -32.1780  -22.2520 C.2   176  PHE176      0.2595
     62  O        -90.2580  -32.1370  -21.1260 O.2   176  PHE176     -0.2718
     63  CB       -91.8210  -29.9400  -22.7290 C.3   176  PHE176      0.0547
     64  CG       -91.0500  -29.5950  -23.9980 C.ar  176  PHE176     -0.0202
     65  CD1      -89.8310  -28.9480  -23.9330 C.ar  176  PHE176     -0.0042
     66  CD2      -91.5730  -29.8930  -25.2310 C.ar  176  PHE176     -0.0042
     67  CE1      -89.1400  -28.6210  -25.0730 C.ar  176  PHE176     -0.0003
     68  CE2      -90.9070  -29.5400  -26.3780 C.ar  176  PHE176     -0.0003
     69  CZ       -89.6700  -28.9320  -26.2950 C.ar  176  PHE176     -0.0000
     70  N        -90.2550  -32.8360  -23.2900 N.am  177  VAL177     -0.1966
     71  CA       -88.8930  -33.3980  -23.2760 C.3   177  VAL177      0.1727
     72  C        -87.9970  -32.6060  -24.2390 C.2   177  VAL177      0.2616
     73  O        -88.0880  -32.7830  -25.4430 O.2   177  VAL177     -0.2715
     74  CB       -88.8850  -34.9270  -23.6880 C.3   177  VAL177      0.0290
     75  CG1      -87.5240  -35.4940  -23.5250 C.3   177  VAL177      0.0023
     76  CG2      -89.8860  -35.6950  -22.8500 C.3   177  VAL177      0.0023
     77  N        -87.0990  -31.7750  -23.7140 N.am  178  ALA178     -0.1963
     78  CA       -86.3290  -30.8740  -24.5810 C.3   178  ALA178      0.1728
     79  C        -85.3670  -31.5890  -25.5200 C.2   178  ALA178      0.2617
     80  O        -85.1670  -31.1420  -26.6460 O.2   178  ALA178     -0.2715
     81  CB       -85.5660  -29.8490  -23.7580 C.3   178  ALA178      0.0334
     82  N        -84.7450  -32.6730  -25.0610 N.am  179  GLY179     -0.1940
     83  CA       -83.7580  -33.3600  -25.8850 C.3   179  GLY179      0.2014
     84  C        -84.3150  -33.9980  -27.1590 C.2   179  GLY179      0.2639
     85  O        -83.5700  -34.2720  -28.1040 O.2   179  GLY179     -0.2714
     86  N        -85.6240  -34.2110  -27.2010 N.am  180  THR180     -0.1950
     87  CA       -86.2620  -34.7970  -28.3650 C.3   180  THR180      0.1897
     88  C        -87.4140  -33.9990  -28.8880 C.2   180  THR180      0.2313
     89  O        -88.0130  -34.4030  -29.8470 O.2   180  THR180     -0.2863
     90  CB       -86.8370  -36.2120  -28.0700 C.3   180  THR180      0.1794
     91  OG1      -87.9020  -36.1160  -27.1050 O.3   180  THR180     -0.2208
     92  CG2      -85.7410  -37.1130  -27.5580 C.3   180  THR180      0.0378
     93  N        -92.9670  -35.6440  -25.7550 N.3   183  LYS183     -0.1231
     94  CA       -93.8580  -35.5920  -24.5890 C.3   183  LYS183      0.1693
     95  C        -93.5380  -36.7790  -23.6740 C.2   183  LYS183      0.2592
     96  O        -93.3760  -37.8830  -24.1540 O.2   183  LYS183     -0.2718
     97  CB       -95.3010  -35.6880  -25.0400 C.3   183  LYS183      0.0285
     98  CG       -95.8210  -34.4370  -25.7500 C.3   183  LYS183      0.0035
     99  CD       -97.2990  -34.5790  -25.9990 C.3   183  LYS183      0.0206
    100  CE       -97.7250  -34.1910  -27.4360 C.3   183  LYS183      0.1093
    101  NZ       -99.2600  -34.1660  -27.5530 N.3   183  LYS183     -0.1314
    102  N        -93.4350  -36.5280  -22.3780 N.am  184  ALA184     -0.1966
    103  CA       -93.0390  -37.5480  -21.4060 C.3   184  ALA184      0.1728
    104  C        -94.0890  -38.6020  -21.2480 C.2   184  ALA184      0.2616
    105  O        -95.2820  -38.3290  -21.3210 O.2   184  ALA184     -0.2715
    106  CB       -92.7150  -36.9210  -20.0560 C.3   184  ALA184      0.0334
    107  N        -93.6420  -39.8280  -21.0230 N.am  185  SER185     -0.1950
    108  CA       -94.5470  -40.9500  -20.7670 C.3   185  SER185      0.1924
    109  C        -95.1980  -40.8880  -19.3810 C.2   185  SER185      0.2314
    110  O        -96.3400  -41.3040  -19.2330 O.2   185  SER185     -0.2863
    111  CB       -93.7840  -42.2630  -20.9920 C.3   185  SER185      0.2116
    112  OG       -93.6510  -42.4690  -22.3980 O.3   185  SER185     -0.2180
    113  N        -93.5630  -45.7150  -16.8780 N.3   190  PHE190     -0.1241
    114  CA       -92.2540  -46.2730  -16.5110 C.3   190  PHE190      0.1605
    115  C        -92.3320  -47.4060  -15.4890 C.2   190  PHE190      0.2264
    116  O        -91.6170  -48.3690  -15.6260 O.2   190  PHE190     -0.2867
    117  CB       -91.2590  -45.1870  -16.1320 C.3   190  PHE190      0.0534
    118  CG       -90.7420  -44.4270  -17.3140 C.ar  190  PHE190     -0.0203
    119  CD1      -89.9310  -45.0380  -18.2410 C.ar  190  PHE190     -0.0042
    120  CD2      -91.0970  -43.1060  -17.5200 C.ar  190  PHE190     -0.0042
    121  CE1      -89.4790  -44.3590  -19.3610 C.ar  190  PHE190     -0.0003
    122  CE2      -90.6580  -42.4400  -18.6200 C.ar  190  PHE190     -0.0003
    123  CZ       -89.8500  -43.0510  -19.5400 C.ar  190  PHE190     -0.0000
@<TRIPOS>BOND
     1    89    88    2
     2    88    87    1
     3    87    90    1
     4    87    86    1
     5    85    84    2
     6    90    92    1
     7    90    91    1
     8   101   100    1
     9   100    99    1
    10    86    84   am
    11    84    83    1
    12    80    79    2
    13    68    69   ar
    14    68    66   ar
    15    69    67   ar
    16    99    98    1
    17    83    82    1
    18    93    94    1
    19    98    97    1
    20    79    82   am
    21    79    78    1
    22    73    72    2
    23    66    64   ar
    24    67    65   ar
    25    97    94    1
    26    94    95    1
    27    78    81    1
    28    78    77    1
    29    72    77   am
    30    72    71    1
    31    96    95    2
    32    64    65   ar
    33    64    63    1
    34    74    75    1
    35    74    71    1
    36    74    76    1
    37    95   102   am
    38    70    71    1
    39    70    61   am
    40    63    60    1
    41    60    61    1
    42    60    59    1
    43   112   111    1
    44   102   103    1
    45    61    62    2
    46    21    19    1
    47    20    22    1
    48    20    19    1
    49   103   104    1
    50   103   106    1
    51   105   104    2
    52   104   107   am
    53    19    16    1
    54   107   108    1
    55   111   108    1
    56   108   109    1
    57   123   121   ar
    58   123   122   ar
    59    16    15    1
    60    16    17    1
    61    57    56    1
    62   109   110    2
    63   121   119   ar
    64    30    29   ar
    65    15    11   am
    66    17    23   am
    67    17    18    2
    68    23    24    1
    69   122   120   ar
    70   119   118   ar
    71    27    24    1
    72    27    28    1
    73    56    58    1
    74    56    55    2
    75    24    25    1
    76    54    55    1
    77    54    53    1
    78    29    28    1
    79    29    31   ar
    80    11    10    1
    81    11    12    2
    82   120   118   ar
    83   118   117    1
    84    53    52    1
    85    10    13    1
    86    10     9    1
    87    13    14    1
    88   113   114    1
    89    25    26    2
    90    39    37    1
    91   114   117    1
    92   114   115    1
    93    38    36    1
    94     4     3    2
    95    36    37    1
    96    36    33    1
    97    51    50    2
    98    52    49    1
    99     9     3   am
   100   116   115    2
   101     3     2    1
   102    50    49    1
   103    34    33    1
   104    34    35    2
   105     7     6   ar
   106    32    33    1
   107     8     6   ar
   108    49    48    1
   109     6     5    1
   110    48    42   am
   111     2     5    1
   112     2     1    1
   113    46    45    1
   114    42    41    1
   115    42    43    2
   116    47    45    1
   117    44    41    1
   118    44    45    1
   119    41    40    1
