@<TRIPOS>MOLECULE
tmp/1xjgA00.pdb
 135 129 0 0 0
SMALL
GASTEIGER

@<TRIPOS>ATOM
      1  N        -86.1030  -73.9150    0.6810 N.3    26  ARG26      -0.1245
      2  CA       -85.2990  -72.7770    0.2140 C.3    26  ARG26       0.1563
      3  C        -84.1430  -72.4090    1.1140 C.2    26  ARG26       0.2260
      4  O        -83.3730  -71.5090    0.7610 O.2    26  ARG26      -0.2867
      5  CB       -86.1570  -71.5490   -0.1250 C.3    26  ARG26       0.0307
      6  CG       -87.5710  -71.5540    0.4770 C.3    26  ARG26       0.0489
      7  CD       -88.4340  -70.3660    0.0090 C.3    26  ARG26       0.2205
      8  NE       -89.5170  -70.0830    0.9690 N.pl3  26  ARG26      -0.0865
      9  CZ       -89.5020  -69.0900    1.8780 C.cat  26  ARG26       0.5346
     10  NH1      -88.4770  -68.2410    1.9580 N.pl3  26  ARG26       0.1354
     11  NH2      -90.5200  -68.9320    2.7300 N.pl3  26  ARG26       0.1354
     12  N        -83.2730  -61.9240    9.1990 N.3    90  ASN90      -0.1225
     13  CA       -83.9770  -61.9540    7.9150 C.3    90  ASN90       0.1785
     14  C        -83.4150  -63.0250    6.9690 C.2    90  ASN90       0.2598
     15  O        -82.1850  -63.2200    6.9180 O.2    90  ASN90      -0.2718
     16  CB       -83.9790  -60.5730    7.2220 C.3    90  ASN90       0.1169
     17  CG       -82.5660  -59.9600    7.0240 C.2    90  ASN90       0.2627
     18  OD1      -82.4710  -58.7600    6.7920 O.2    90  ASN90      -0.2716
     19  ND2      -81.4830  -60.7710    7.1110 N.am   90  ASN90      -0.0877
     20  N        -84.3190  -63.6920    6.2360 N.am   91  SER91      -0.1938
     21  CA       -83.9820  -64.7400    5.2540 C.3    91  SER91       0.2040
     22  C        -82.6560  -64.5420    4.5080 C.2    91  SER91       0.2485
     23  O        -81.8630  -65.4700    4.4220 O.2    91  SER91      -0.2729
     24  CB       -85.0940  -64.8700    4.2010 C.3    91  SER91       0.2129
     25  OG       -86.2790  -65.2940    4.8030 O.3    91  SER91      -0.2179
     26  N        -82.4250  -63.3710    3.9220 N.am   92  PRO92      -0.2726
     27  CA       -81.1310  -63.2840    3.2170 C.3    92  PRO92       0.1402
     28  C        -79.9500  -63.8090    4.0480 C.2    92  PRO92       0.2269
     29  O        -79.2510  -64.7410    3.6510 O.2    92  PRO92      -0.2865
     30  CB       -80.9980  -61.8060    2.9420 C.3    92  PRO92       0.0296
     31  CG       -82.5280  -61.3810    2.7250 C.3    92  PRO92       0.0237
     32  CD       -83.2220  -62.1380    3.8140 C.3    92  PRO92       0.0939
     33  N        -81.9320  -57.3100    3.6560 N.3   133  ALA133     -0.1231
     34  CA       -83.2390  -57.4940    2.9400 C.3   133  ALA133      0.1694
     35  C        -83.9060  -56.2420    2.4090 C.2   133  ALA133      0.2592
     36  O        -84.8270  -56.2970    1.5790 O.2   133  ALA133     -0.2718
     37  CB       -84.2140  -58.1740    3.8530 C.3   133  ALA133      0.0304
     38  N        -83.5100  -55.1020    2.9490 N.am  134  CYS134     -0.1970
     39  CA       -84.2170  -53.8670    2.6260 C.3   134  CYS134      0.1712
     40  C        -83.1980  -52.9500    1.9940 C.2   134  CYS134      0.2296
     41  O        -82.0510  -52.9310    2.4090 O.2   134  CYS134     -0.2864
     42  CB       -84.8660  -53.2690    3.8860 C.3   134  CYS134      0.0983
     43  SG       -85.5590  -54.5590    5.0090 S.3   134  CYS134     -0.0798
     44  N        -81.0880  -61.1820   -3.6840 N.3   160  GLY160     -0.1210
     45  CA       -82.2090  -61.5470   -2.8130 C.3   160  GLY160      0.1956
     46  C        -82.6990  -60.4180   -1.9290 C.2   160  GLY160      0.2612
     47  O        -83.1420  -60.6400   -0.8380 O.2   160  GLY160     -0.2717
     48  N        -82.6030  -59.1830   -2.3860 N.am  161  GLY161     -0.1942
     49  CA       -82.9870  -58.0330   -1.5970 C.3   161  GLY161      0.2014
     50  C        -84.2960  -57.4880   -2.1210 C.2   161  GLY161      0.2639
     51  O        -84.6740  -57.7820   -3.2530 O.2   161  GLY161     -0.2714
     52  N        -85.0120  -56.6970   -1.3260 N.am  162  GLY162     -0.1954
     53  CA       -86.2080  -56.0090   -1.8430 C.3   162  GLY162      0.1869
     54  C        -85.8600  -54.5540   -1.7920 C.2   162  GLY162      0.2309
     55  O        -85.1050  -54.1520   -0.9170 O.2   162  GLY162     -0.2863
     56  N        -91.3710  -58.4290   -4.8530 N.3   203  ALA203     -0.1245
     57  CA       -92.1710  -57.2570   -4.5720 C.3   203  ALA203      0.1562
     58  C        -91.2260  -56.0670   -4.3380 C.2   203  ALA203      0.2260
     59  O        -90.0960  -56.2390   -3.8500 O.2   203  ALA203     -0.2867
     60  CB       -93.0870  -57.4780   -3.3860 C.3   203  ALA203      0.0290
     61  N        -88.5390  -49.6340    1.9310 N.3   307  ASN307     -0.1226
     62  CA       -88.4260  -50.8930    1.1940 C.3   307  ASN307      0.1770
     63  C        -89.8330  -51.4780    0.8340 C.2   307  ASN307      0.2439
     64  O        -90.8560  -50.8510    1.1350 O.2   307  ASN307     -0.2733
     65  CB       -87.6640  -51.8610    2.0450 C.3   307  ASN307      0.1168
     66  CG       -88.4210  -52.2540    3.3240 C.2   307  ASN307      0.2627
     67  OD1      -88.7430  -53.4400    3.5300 O.2   307  ASN307     -0.2716
     68  ND2      -88.7120  -51.2780    4.1740 N.am  307  ASN307     -0.0877
     69  N        -89.8960  -52.6540    0.1720 N.am  308  PRO308     -0.2718
     70  CA       -91.2260  -53.2300   -0.1790 C.3   308  PRO308      0.1535
     71  C        -92.3160  -53.2730    0.9230 C.2   308  PRO308      0.2598
     72  O        -93.4830  -53.0230    0.6380 O.2   308  PRO308     -0.2715
     73  CB       -90.9050  -54.6460   -0.6740 C.3   308  PRO308      0.0310
     74  CG       -89.4470  -54.6210   -1.0470 C.3   308  PRO308      0.0237
     75  CD       -88.7730  -53.4660   -0.3270 C.3   308  PRO308      0.0939
     76  N        -91.9920  -53.5750    2.1610 N.am  309  CYS309     -0.1968
     77  CA       -93.0830  -53.6460    3.1200 C.3   309  CYS309      0.1712
     78  C        -93.1810  -52.4680    4.0980 C.2   309  CYS309      0.2296
     79  O        -93.8990  -52.5470    5.0940 O.2   309  CYS309     -0.2864
     80  CB       -93.0990  -54.9700    3.8690 C.3   309  CYS309      0.0983
     81  SG       -93.1080  -56.4510    2.8520 S.3   309  CYS309     -0.0798
     82  N        -91.3230  -51.0940    6.3600 N.3   311  GLU311     -0.1245
     83  CA       -90.7840  -51.0430    7.7310 C.3   311  GLU311      0.1567
     84  C        -89.4320  -50.3660    7.9470 C.2   311  GLU311      0.2260
     85  O        -89.0710  -50.1100    9.1030 O.2   311  GLU311     -0.2867
     86  CB       -90.7320  -52.4190    8.3860 C.3   311  GLU311      0.0388
     87  CG       -89.6090  -53.2890    7.9170 C.3   311  GLU311      0.1160
     88  CD       -89.9890  -54.0970    6.7050 C.2   311  GLU311      0.3649
     89  OE1      -90.8310  -53.6440    5.9220 O.co2 311  GLU311     -0.2457
     90  OE2      -89.4530  -55.1880    6.5270 O.co2 311  GLU311     -0.2457
     91  N        -82.0360  -57.1690    9.1370 N.3   322  LEU322     -0.1245
     92  CA       -83.0330  -57.3030   10.1920 C.3   322  LEU322      0.1561
     93  C        -82.9500  -58.6590   10.8040 C.2   322  LEU322      0.2260
     94  O        -82.3580  -59.5950   10.2410 O.2   322  LEU322     -0.2867
     95  CB       -84.4430  -57.1930    9.6050 C.3   322  LEU322      0.0270
     96  CG       -84.7680  -56.2300    8.4670 C.3   322  LEU322      0.0019
     97  CD1      -86.2580  -56.2920    8.1130 C.3   322  LEU322      0.0001
     98  CD2      -84.3270  -54.7990    8.8200 C.3   322  LEU322      0.0001
     99  N        -90.6190  -56.1900   11.4210 N.3   476  ALA476     -0.1231
    100  CA       -90.7380  -56.8060   10.0820 C.3   476  ALA476      0.1679
    101  C        -92.0230  -57.6570    9.9710 C.2   476  ALA476      0.2434
    102  O        -92.5470  -58.0690   10.9900 O.2   476  ALA476     -0.2733
    103  CB       -89.4870  -57.6770    9.8160 C.3   476  ALA476      0.0304
    104  N        -92.4860  -58.0030    8.7520 N.am  477  PRO477     -0.2718
    105  CA       -93.6490  -58.9350    8.7090 C.3   477  PRO477      0.1535
    106  C        -93.2790  -60.3650    9.1740 C.2   477  PRO477      0.2599
    107  O        -94.1460  -61.1410    9.5540 O.2   477  PRO477     -0.2715
    108  CB       -94.0280  -58.9940    7.1980 C.3   477  PRO477      0.0310
    109  CG       -93.1230  -58.1680    6.4660 C.3   477  PRO477      0.0237
    110  CD       -91.9930  -57.6920    7.3960 C.3   477  PRO477      0.0939
    111  N        -91.9980  -60.7120    9.1020 N.am  478  THR478     -0.1937
    112  CA       -91.5210  -62.0540    9.3870 C.3   478  THR478      0.2028
    113  C        -92.3170  -63.2050    8.7270 C.2   478  THR478      0.2643
    114  O        -92.4200  -64.3270    9.2800 O.2   478  THR478     -0.2714
    115  CB       -91.3880  -62.3130   10.8920 C.3   478  THR478      0.1808
    116  OG1      -92.6910  -62.2410   11.4800 O.3   478  THR478     -0.2208
    117  CG2      -90.3880  -61.3390   11.5580 C.3   478  THR478      0.0379
    118  N        -92.8440  -62.9380    7.5340 N.am  479  GLY479     -0.1939
    119  CA       -93.5170  -63.9580    6.7580 C.3   479  GLY479      0.2014
    120  C        -92.8510  -65.3310    6.7900 C.2   479  GLY479      0.2640
    121  O        -93.5340  -66.3190    6.9950 O.2   479  GLY479     -0.2714
    122  N        -91.5300  -65.4330    6.5880 N.am  480  SER480     -0.1935
    123  CA       -90.9010  -66.7790    6.6400 C.3   480  SER480      0.2055
    124  C        -90.3000  -67.2260    7.9680 C.2   480  SER480      0.2642
    125  O        -90.4470  -68.3860    8.3790 O.2   480  SER480     -0.2714
    126  CB       -89.8720  -66.9130    5.5470 C.3   480  SER480      0.2130
    127  OG       -90.5010  -66.6140    4.3140 O.3   480  SER480     -0.2179
    128  N        -89.6100  -66.3200    8.6400 N.am  481  ILE481     -0.1977
    129  CA       -88.8340  -66.7030    9.8260 C.3   481  ILE481      0.1596
    130  C        -89.7230  -66.9880   11.0200 C.2   481  ILE481      0.2287
    131  O        -89.3340  -67.7810   11.9170 O.2   481  ILE481     -0.2864
    132  CB       -87.6550  -65.7260   10.1540 C.3   481  ILE481      0.0276
    133  CG1      -88.1190  -64.2710   10.3270 C.3   481  ILE481      0.0022
    134  CG2      -86.6650  -65.7720    9.0590 C.3   481  ILE481      0.0022
    135  CD1      -87.2650  -63.4460   11.2910 C.3   481  ILE481      0.0001
@<TRIPOS>BOND
     1    56    57    1
     2    57    58    1
     3    57    60    1
     4    58    59    2
     5    44    45    1
     6    51    50    2
     7    45    46    1
     8    48    46   am
     9    48    49    1
    10    50    49    1
    11    50    52   am
    12    46    47    2
    13    53    54    1
    14    53    52    1
    15    54    55    2
    16    74    73    1
    17    74    75    1
    18    73    70    1
    19    75    69    1
    20    70    69    1
    21    70    71    1
    22     5     2    1
    23     5     6    1
    24     7     6    1
    25     7     8    1
    26    69    63   am
    27     2     1    1
    28     2     3    1
    29    72    71    2
    30     4     3    2
    31    63    64    2
    32    63    62    1
    33    71    76   am
    34     8     9    2
    35    62    61    1
    36    62    65    1
    37    36    35    2
    38     9    10    1
    39     9    11    1
    40    40    41    2
    41    40    39    1
    42    65    66    1
    43    76    77    1
    44    35    34    1
    45    35    38   am
    46    39    38    1
    47    39    42    1
    48    31    30    1
    49    31    32    1
    50    81    80    1
    51    34    33    1
    52    34    37    1
    53    30    27    1
    54    77    80    1
    55    77    78    1
    56    27    26    1
    57    27    28    1
    58    66    67    2
    59    66    68   am
    60    29    28    2
    61    32    26    1
    62    42    43    1
    63    26    22   am
    64    78    79    2
    65    24    25    1
    66    24    21    1
    67   127   126    1
    68    23    22    2
    69    22    21    1
    70    21    20    1
    71   126   123    1
    72    89    88   ar
    73    20    14   am
    74    82    83    1
    75   109   108    1
    76   109   110    1
    77    90    88   ar
    78   122   123    1
    79   122   120   am
    80   123   124    1
    81    88    87    1
    82   119   120    1
    83   119   118    1
    84   120   121    2
    85    18    17    2
    86    15    14    2
    87    14    13    1
    88    17    19   am
    89    17    16    1
    90   108   105    1
    91    16    13    1
    92   110   104    1
    93   118   113   am
    94    83    84    1
    95    83    86    1
    96    13    12    1
    97    87    86    1
    98    84    85    2
    99   124   125    2
   100   124   128   am
   101    97    96    1
   102    96    98    1
   103    96    95    1
   104   128   129    1
   105   105   104    1
   106   105   106    1
   107   113   114    2
   108   113   112    1
   109   104   101   am
   110   134   132    1
   111   111   106   am
   112   111   112    1
   113    91    92    1
   114   106   107    2
   115   112   115    1
   116    95    92    1
   117   103   100    1
   118   129   132    1
   119   129   130    1
   120   101   100    1
   121   101   102    2
   122   100    99    1
   123   132   133    1
   124    92    93    1
   125    94    93    2
   126   133   135    1
   127   115   116    1
   128   115   117    1
   129   130   131    2
