@<TRIPOS>MOLECULE
tmp/1xjgA02.pdb
 118 114 0 0 0
SMALL
GASTEIGER

@<TRIPOS>ATOM
      1  N        -84.2000  -37.4510  -12.3270 N.3   141  ASP141     -0.1225
      2  CA       -85.0030  -37.0770  -13.4780 C.3   141  ASP141      0.1805
      3  C        -84.3020  -37.1600  -14.8490 C.2   141  ASP141      0.2598
      4  O        -84.2870  -36.1500  -15.5710 O.2   141  ASP141     -0.2718
      5  CB       -85.5460  -35.6690  -13.2800 C.3   141  ASP141      0.1424
      6  CG       -86.7490  -35.4130  -14.1330 C.2   141  ASP141      0.3668
      7  OD1      -87.3840  -36.4100  -14.5090 O.co2 141  ASP141     -0.2456
      8  OD2      -87.0580  -34.2350  -14.4500 O.co2 141  ASP141     -0.2456
      9  N        -83.7490  -38.3090  -15.2500 N.am  142  SER142     -0.1938
     10  CA       -82.7920  -38.2280  -16.3590 C.3   142  SER142      0.2055
     11  C        -82.5630  -39.3140  -17.4380 C.2   142  SER142      0.2642
     12  O        -81.8260  -39.0370  -18.4000 O.2   142  SER142     -0.2714
     13  CB       -81.4230  -37.7620  -15.8320 C.3   142  SER142      0.2130
     14  OG       -80.5250  -38.8420  -15.7720 O.3   142  SER142     -0.2179
     15  N        -83.1340  -40.5130  -17.3460 N.am  143  ILE143     -0.1977
     16  CA       -82.8090  -41.5760  -18.3700 C.3   143  ILE143      0.1596
     17  C        -81.5300  -42.2880  -18.0020 C.2   143  ILE143      0.2287
     18  O        -81.5940  -43.4570  -17.6450 O.2   143  ILE143     -0.2864
     19  CB       -82.7340  -41.0940  -19.8530 C.3   143  ILE143      0.0276
     20  CG1      -84.0540  -40.4950  -20.3110 C.3   143  ILE143      0.0022
     21  CG2      -82.4570  -42.2520  -20.7900 C.3   143  ILE143      0.0022
     22  CD1      -84.9570  -41.4680  -20.9790 C.3   143  ILE143      0.0001
     23  N        -82.6730  -43.0490  -14.5310 N.3   146  ILE146     -0.1245
     24  CA       -83.8140  -43.9770  -14.6100 C.3   146  ILE146      0.1561
     25  C        -83.3210  -45.3860  -14.9270 C.2   146  ILE146      0.2260
     26  O        -83.5280  -46.3410  -14.1620 O.2   146  ILE146     -0.2867
     27  CB       -84.8130  -43.5640  -15.6900 C.3   146  ILE146      0.0252
     28  CG1      -85.3630  -42.1370  -15.4320 C.3   146  ILE146      0.0019
     29  CG2      -85.9320  -44.6450  -15.8640 C.3   146  ILE146      0.0019
     30  CD1      -86.6300  -41.7710  -16.2910 C.3   146  ILE146      0.0001
     31  N        -89.2700  -37.8670  -11.3010 N.3   170  LEU170     -0.1231
     32  CA       -89.6400  -37.9580  -12.7090 C.3   170  LEU170      0.1693
     33  C        -90.6690  -36.8960  -13.1080 C.2   170  LEU170      0.2591
     34  O        -91.7830  -36.8970  -12.5560 O.2   170  LEU170     -0.2718
     35  CB       -90.1910  -39.3560  -13.0310 C.3   170  LEU170      0.0284
     36  CG       -89.2650  -40.5430  -12.6610 C.3   170  LEU170      0.0019
     37  CD1      -89.6260  -41.7970  -13.4830 C.3   170  LEU170      0.0001
     38  CD2      -87.7320  -40.1800  -12.7440 C.3   170  LEU170      0.0001
     39  N        -90.3070  -35.9770  -14.0260 N.am  171  ARG171     -0.1980
     40  CA       -91.2680  -34.9290  -14.4370 C.3   171  ARG171      0.1597
     41  C        -92.5420  -35.5150  -15.0750 C.2   171  ARG171      0.2287
     42  O        -92.5190  -36.5520  -15.7270 O.2   171  ARG171     -0.2864
     43  CB       -90.6140  -33.8560  -15.3260 C.3   171  ARG171      0.0334
     44  CG       -90.3380  -34.2970  -16.7960 C.3   171  ARG171      0.0492
     45  CD       -89.2810  -33.4430  -17.5180 C.3   171  ARG171      0.2205
     46  NE       -87.9620  -33.4350  -16.8550 N.pl3 171  ARG171     -0.0865
     47  CZ       -86.8580  -32.9510  -17.4450 C.cat 171  ARG171      0.5346
     48  NH1      -86.9440  -32.5320  -18.7210 N.pl3 171  ARG171      0.1354
     49  NH2      -85.6590  -32.9430  -16.8170 N.pl3 171  ARG171      0.1354
     50  N        -92.1040  -30.9800  -21.3640 N.3   176  PHE176     -0.1227
     51  CA       -91.0420  -30.6620  -22.3110 C.3   176  PHE176      0.1736
     52  C        -89.7140  -31.3490  -21.9190 C.2   176  PHE176      0.2595
     53  O        -89.2990  -31.3450  -20.7580 O.2   176  PHE176     -0.2718
     54  CB       -90.8530  -29.1290  -22.4040 C.3   176  PHE176      0.0547
     55  CG       -89.4950  -28.7080  -22.9610 C.ar  176  PHE176     -0.0202
     56  CD1      -89.3500  -28.3790  -24.3190 C.ar  176  PHE176     -0.0042
     57  CD2      -88.3480  -28.6810  -22.1250 C.ar  176  PHE176     -0.0042
     58  CE1      -88.0760  -28.0170  -24.8340 C.ar  176  PHE176     -0.0003
     59  CE2      -87.0730  -28.3320  -22.6250 C.ar  176  PHE176     -0.0003
     60  CZ       -86.9300  -27.9970  -23.9790 C.ar  176  PHE176     -0.0000
     61  N        -89.0380  -31.9040  -22.9190 N.am  177  VAL177     -0.1966
     62  CA       -87.6740  -32.4240  -22.7710 C.3   177  VAL177      0.1727
     63  C        -86.8890  -31.8720  -23.9290 C.2   177  VAL177      0.2616
     64  O        -87.3770  -31.8770  -25.0800 O.2   177  VAL177     -0.2715
     65  CB       -87.5900  -33.9890  -22.9860 C.3   177  VAL177      0.0290
     66  CG1      -86.3020  -34.5790  -22.3660 C.3   177  VAL177      0.0023
     67  CG2      -88.8800  -34.7160  -22.5270 C.3   177  VAL177      0.0023
     68  N        -85.6720  -31.4290  -23.6610 N.am  178  ALA178     -0.1963
     69  CA       -84.6940  -31.3630  -24.7540 C.3   178  ALA178      0.1728
     70  C        -83.2890  -31.3430  -24.1750 C.2   178  ALA178      0.2617
     71  O        -82.9260  -30.3600  -23.5320 O.2   178  ALA178     -0.2715
     72  CB       -84.9470  -30.1460  -25.7390 C.3   178  ALA178      0.0334
     73  N        -82.5490  -32.4540  -24.2550 N.am  179  GLY179     -0.1940
     74  CA       -83.1020  -33.8070  -24.3520 C.3   179  GLY179      0.2014
     75  C        -83.1800  -34.6140  -25.6550 C.2   179  GLY179      0.2639
     76  O        -82.2740  -35.4050  -25.9770 O.2   179  GLY179     -0.2714
     77  N        -84.2800  -34.4250  -26.3820 N.am  180  THR180     -0.1950
     78  CA       -84.7870  -35.4070  -27.3210 C.3   180  THR180      0.1897
     79  C        -85.8480  -34.7430  -28.1690 C.2   180  THR180      0.2313
     80  O        -85.9700  -34.9910  -29.3760 O.2   180  THR180     -0.2863
     81  CB       -85.5040  -36.5670  -26.5450 C.3   180  THR180      0.1794
     82  OG1      -84.5970  -37.6470  -26.3200 O.3   180  THR180     -0.2208
     83  CG2      -86.7000  -37.1130  -27.3220 C.3   180  THR180      0.0378
     84  N        -89.2990  -35.4720  -27.5010 N.3   182  GLY182     -0.1210
     85  CA       -90.3910  -36.4360  -27.7120 C.3   182  GLY182      0.1956
     86  C        -91.5550  -36.3330  -26.7120 C.2   182  GLY182      0.2612
     87  O        -92.6280  -36.9530  -26.9350 O.2   182  GLY182     -0.2717
     88  N        -91.3820  -35.5390  -25.6400 N.am  183  LYS183     -0.1965
     89  CA       -92.3150  -35.5120  -24.4540 C.3   183  LYS183      0.1728
     90  C        -91.9960  -36.5990  -23.4080 C.2   183  LYS183      0.2616
     91  O        -91.7130  -37.7620  -23.7620 O.2   183  LYS183     -0.2715
     92  CB       -93.8100  -35.5930  -24.8440 C.3   183  LYS183      0.0311
     93  CG       -94.5000  -34.2360  -24.9760 C.3   183  LYS183      0.0038
     94  CD       -95.5440  -34.2060  -26.1030 C.3   183  LYS183      0.0206
     95  CE       -95.8920  -32.7560  -26.4760 C.3   183  LYS183      0.1093
     96  NZ       -94.7540  -31.8060  -26.1640 N.3   183  LYS183     -0.1314
     97  N        -92.0240  -36.2100  -22.1290 N.am  184  ALA184     -0.1963
     98  CA       -91.7510  -37.1330  -21.0110 C.3   184  ALA184      0.1728
     99  C        -92.8930  -38.1270  -20.8530 C.2   184  ALA184      0.2616
    100  O        -94.0760  -37.7710  -20.8950 O.2   184  ALA184     -0.2715
    101  CB       -91.4970  -36.3800  -19.7030 C.3   184  ALA184      0.0334
    102  N        -92.5320  -39.3880  -20.6840 N.am  185  SER185     -0.1950
    103  CA       -93.5250  -40.4420  -20.5490 C.3   185  SER185      0.1924
    104  C        -94.2830  -40.3690  -19.2340 C.2   185  SER185      0.2314
    105  O        -95.4110  -40.8350  -19.1760 O.2   185  SER185     -0.2863
    106  CB       -92.8510  -41.7920  -20.6880 C.3   185  SER185      0.2116
    107  OG       -92.3960  -41.9710  -22.0030 O.3   185  SER185     -0.2180
    108  N        -92.6240  -45.1310  -16.6180 N.3   190  PHE190     -0.1241
    109  CA       -91.2680  -45.6380  -16.4070 C.3   190  PHE190      0.1605
    110  C        -91.2500  -46.7320  -15.3800 C.2   190  PHE190      0.2264
    111  O        -90.3360  -47.5290  -15.3560 O.2   190  PHE190     -0.2867
    112  CB       -90.3270  -44.5380  -15.9970 C.3   190  PHE190      0.0534
    113  CG       -89.9760  -43.5990  -17.1230 C.ar  190  PHE190     -0.0203
    114  CD1      -89.3450  -44.0680  -18.2660 C.ar  190  PHE190     -0.0042
    115  CD2      -90.2420  -42.2250  -17.0230 C.ar  190  PHE190     -0.0042
    116  CE1      -88.9960  -43.1950  -19.3100 C.ar  190  PHE190     -0.0003
    117  CE2      -89.9050  -41.3530  -18.0640 C.ar  190  PHE190     -0.0003
    118  CZ       -89.2860  -41.8300  -19.2120 C.ar  190  PHE190     -0.0000
@<TRIPOS>BOND
     1    80    79    2
     2    79    78    1
     3    85    84    1
     4    85    86    1
     5    83    81    1
     6    78    81    1
     7    78    77    1
     8    87    86    2
     9    86    88   am
    10    81    82    1
    11    95    96    1
    12    95    94    1
    13    77    75   am
    14    94    93    1
    15    76    75    2
    16    72    69    1
    17    75    74    1
    18    88    89    1
    19    64    63    2
    20    93    92    1
    21    92    89    1
    22    58    56   ar
    23    58    60   ar
    24    69    70    1
    25    69    68    1
    26    89    90    1
    27    74    73    1
    28    56    55   ar
    29    73    70   am
    30    70    71    2
    31    60    59   ar
    32    63    68   am
    33    63    62    1
    34    91    90    2
    35    90    97   am
    36    65    62    1
    37    65    67    1
    38    65    66    1
    39    55    54    1
    40    55    57   ar
    41    61    62    1
    42    61    52   am
    43    59    57   ar
    44    54    51    1
    45    51    52    1
    46    51    50    1
    47    97    98    1
    48   107   106    1
    49    52    53    2
    50    98    99    1
    51    98   101    1
    52    22    20    1
    53   100    99    2
    54    99   102   am
    55    21    19    1
    56   106   103    1
    57   102   103    1
    58   103   104    1
    59    20    19    1
    60    19    16    1
    61   116   118   ar
    62   116   114   ar
    63   104   105    2
    64   118   117   ar
    65    48    47    1
    66    12    11    2
    67    16    17    1
    68    16    15    1
    69   114   113   ar
    70   117   115   ar
    71    17    18    2
    72    45    46    1
    73    45    44    1
    74    47    46    2
    75    47    49    1
    76    11    15   am
    77    11    10    1
    78   113   115   ar
    79   113   112    1
    80    44    43    1
    81   108   109    1
    82   109   112    1
    83   109   110    1
    84    10    13    1
    85    10     9    1
    86    30    28    1
    87    29    27    1
    88    13    14    1
    89    42    41    2
    90    27    28    1
    91    27    24    1
    92     4     3    2
    93   110   111    2
    94    43    40    1
    95     9     3   am
    96    41    40    1
    97    25    24    1
    98    25    26    2
    99     3     2    1
   100    24    23    1
   101     7     6   ar
   102     8     6   ar
   103    40    39    1
   104     6     5    1
   105    39    33   am
   106    37    36    1
   107     2     5    1
   108     2     1    1
   109    33    32    1
   110    33    34    2
   111    35    32    1
   112    35    36    1
   113    38    36    1
   114    32    31    1
