@<TRIPOS>MOLECULE
tmp/1xjiA04.pdb
 73 67 0 0 0
SMALL
GASTEIGER

@<TRIPOS>ATOM
      1  N         12.2890  -24.1150    6.4190 N.3    19  THR19      -0.1218
      2  CA        11.5030  -25.3200    6.6890 C.3    19  THR19       0.1862
      3  C         12.2920  -26.3420    7.5010 C.2    19  THR19       0.2287
      4  O         11.8530  -26.7640    8.5670 O.2    19  THR19      -0.2866
      5  CB        11.0750  -26.0150    5.3910 C.3    19  THR19       0.1770
      6  OG1       10.3040  -25.1090    4.6020 O.3    19  THR19      -0.2211
      7  CG2       10.2420  -27.2450    5.6910 C.3    19  THR19       0.0375
      8  N         11.7750  -27.4970   11.3530 N.3    23  LEU23      -0.1245
      9  CA        11.4800  -28.9240   11.4900 C.3    23  LEU23       0.1561
     10  C         12.4130  -29.5660   12.5150 C.2    23  LEU23       0.2260
     11  O         11.9740  -30.2860   13.4080 O.2    23  LEU23      -0.2867
     12  CB        11.6310  -29.6130   10.1300 C.3    23  LEU23       0.0270
     13  CG        11.0580  -31.0110    9.8830 C.3    23  LEU23       0.0019
     14  CD1       12.1700  -32.0450    9.9050 C.3    23  LEU23       0.0001
     15  CD2        9.9850  -31.3200   10.9090 C.3    23  LEU23       0.0001
     16  N         11.7600  -28.1550   15.8540 N.3    26  GLY26      -0.1210
     17  CA        10.4590  -28.6070   16.2950 C.3    26  GLY26       0.1956
     18  C         10.4320  -30.0240   16.8330 C.2    26  GLY26       0.2611
     19  O          9.7770  -30.3010   17.8350 O.2    26  GLY26      -0.2717
     20  N         11.1580  -30.9220   16.1820 N.am   27  MET27      -0.1979
     21  CA        11.1690  -32.3140   16.6030 C.3    27  MET27       0.1605
     22  C         11.9660  -32.5830   17.8600 C.2    27  MET27       0.2287
     23  O         11.8630  -33.6610   18.4370 O.2    27  MET27      -0.2864
     24  CB        11.6610  -33.1960   15.4600 C.3    27  MET27       0.0413
     25  CG        10.8160  -33.0220   14.2210 C.3    27  MET27       0.0598
     26  SD        10.6170  -34.5270   13.3070 S.3    27  MET27      -0.1393
     27  CE         9.7080  -35.5210   14.4800 C.3    27  MET27       0.0692
     28  N          4.9080  -27.7200   20.4940 N.3    35  LYS35      -0.1245
     29  CA         4.8530  -28.6450   19.3670 C.3    35  LYS35       0.1561
     30  C          3.7980  -28.2100   18.3520 C.2    35  LYS35       0.2260
     31  O          3.9910  -28.3390   17.1420 O.2    35  LYS35      -0.2867
     32  CB         4.5370  -30.0560   19.8750 C.3    35  LYS35       0.0271
     33  CG         5.7510  -30.9100   20.2450 C.3    35  LYS35       0.0035
     34  CD         6.2130  -31.7530   19.0470 C.3    35  LYS35       0.0206
     35  CE         7.4180  -32.6400   19.3740 C.3    35  LYS35       0.1093
     36  NZ         7.6560  -33.6560   18.3030 N.3    35  LYS35      -0.1314
     37  N          5.1710  -25.2050   16.3960 N.3    38  TYR38      -0.1227
     38  CA         6.2060  -25.6830   15.4790 C.3    38  TYR38       0.1736
     39  C          5.6440  -26.3880   14.2500 C.2    38  TYR38       0.2595
     40  O          6.1540  -26.2120   13.1420 O.2    38  TYR38      -0.2718
     41  CB         7.1680  -26.6360   16.1960 C.3    38  TYR38       0.0548
     42  CG         8.3610  -25.9480   16.8130 C.ar   38  TYR38      -0.0200
     43  CD1        9.3820  -25.4290   16.0130 C.ar   38  TYR38      -0.0009
     44  CD2        8.4690  -25.7990   18.1940 C.ar   38  TYR38      -0.0009
     45  CE1       10.4770  -24.7810   16.5750 C.ar   38  TYR38       0.0417
     46  CE2        9.5660  -25.1460   18.7650 C.ar   38  TYR38       0.0417
     47  CZ        10.5580  -24.6430   17.9530 C.ar   38  TYR38       0.1957
     48  OH        11.6250  -23.9810   18.5150 O.3    38  TYR38      -0.2866
     49  N          4.6000  -27.1880   14.4490 N.am   39  ALA39      -0.1980
     50  CA         3.9850  -27.9180   13.3520 C.3    39  ALA39       0.1597
     51  C          3.3580  -26.9490   12.3620 C.2    39  ALA39       0.2287
     52  O          3.6440  -26.9980   11.1620 O.2    39  ALA39      -0.2864
     53  CB         2.9360  -28.8730   13.8880 C.3    39  ALA39       0.0319
     54  N          6.0410  -24.7530   10.7330 N.3    42  THR42      -0.1203
     55  CA         6.9370  -25.4440    9.8230 C.3    42  THR42       0.1994
     56  C          6.2200  -25.6960    8.4930 C.2    42  THR42       0.2617
     57  O          6.8040  -25.5420    7.4280 O.2    42  THR42      -0.2717
     58  CB         7.4030  -26.7850   10.4340 C.3    42  THR42       0.1784
     59  OG1        8.0950  -26.5280   11.6600 O.3    42  THR42      -0.2211
     60  CG2        8.3300  -27.5280    9.4850 C.3    42  THR42       0.0376
     61  N          4.9450  -26.0620    8.5690 N.am   43  LEU43      -0.1979
     62  CA         4.1430  -26.3340    7.3850 C.3    43  LEU43       0.1596
     63  C          4.0850  -25.1500    6.4150 C.2    43  LEU43       0.2287
     64  O          4.1290  -25.3260    5.1930 O.2    43  LEU43      -0.2864
     65  CB         2.7270  -26.7290    7.8130 C.3    43  LEU43       0.0297
     66  CG         1.7650  -27.1460    6.7060 C.3    43  LEU43       0.0022
     67  CD1        2.3910  -28.2490    5.8530 C.3    43  LEU43       0.0001
     68  CD2        0.4710  -27.6210    7.3420 C.3    43  LEU43       0.0001
     69  N          7.0190  -24.8470    4.2820 N.3    46  ALA46      -0.1245
     70  CA         7.1150  -26.1130    3.5620 C.3    46  ALA46       0.1562
     71  C          6.2620  -26.0200    2.3090 C.2    46  ALA46       0.2260
     72  O          6.6480  -26.5060    1.2470 O.2    46  ALA46      -0.2867
     73  CB         6.6420  -27.2620    4.4310 C.3    46  ALA46       0.0290
@<TRIPOS>BOND
     1    72    71    2
     2    71    70    1
     3    70    69    1
     4    70    73    1
     5     6     5    1
     6    64    63    2
     7     5     7    1
     8     5     2    1
     9    67    66    1
    10    63    62    1
    11     1     2    1
    12     2     3    1
    13    66    68    1
    14    66    65    1
    15    62    65    1
    16    62    61    1
    17    57    56    2
    18     3     4    2
    19    56    61   am
    20    56    55    1
    21    60    58    1
    22    55    58    1
    23    55    54    1
    24    13    14    1
    25    13    12    1
    26    13    15    1
    27    12     9    1
    28    58    59    1
    29    52    51    2
    30     8     9    1
    31     9    10    1
    32    51    50    1
    33    10    11    2
    34    40    39    2
    35    26    25    1
    36    26    27    1
    37    50    53    1
    38    50    49    1
    39    25    24    1
    40    39    49   am
    41    39    38    1
    42    24    21    1
    43    38    41    1
    44    38    37    1
    45    16    17    1
    46    43    45   ar
    47    43    42   ar
    48    20    21    1
    49    20    18   am
    50    41    42    1
    51    17    18    1
    52    45    47   ar
    53    21    22    1
    54    42    44   ar
    55    18    19    2
    56    31    30    2
    57    22    23    2
    58    47    48    1
    59    47    46   ar
    60    44    46   ar
    61    36    35    1
    62    30    29    1
    63    34    35    1
    64    34    33    1
    65    29    32    1
    66    29    28    1
    67    32    33    1
