@<TRIPOS>MOLECULE
tmp/1xjjB02.pdb
 175 170 0 0 0
SMALL
GASTEIGER

@<TRIPOS>ATOM
      1  N        -90.3750  -32.8820  -40.2440 N.3    26  ARG26      -0.1231
      2  CA       -89.3200  -33.5580  -39.4630 C.3    26  ARG26       0.1694
      3  C        -87.9310  -32.9660  -39.5510 C.2    26  ARG26       0.2592
      4  O        -87.1180  -33.2260  -38.6670 O.2    26  ARG26      -0.2718
      5  CB       -89.1750  -35.0230  -39.9040 C.3    26  ARG26       0.0321
      6  CG       -90.4500  -35.8300  -39.8560 C.3    26  ARG26       0.0489
      7  CD       -90.1250  -37.3210  -39.8160 C.3    26  ARG26       0.2205
      8  NE       -90.3100  -37.9910  -41.0960 N.pl3  26  ARG26      -0.0865
      9  CZ       -89.4870  -38.9160  -41.5900 C.cat  26  ARG26       0.5346
     10  NH1      -88.3660  -39.2600  -40.9440 N.pl3  26  ARG26       0.1354
     11  NH2      -89.7730  -39.4790  -42.7590 N.pl3  26  ARG26       0.1354
     12  N        -87.6360  -32.2320  -40.6260 N.am   27  TYR27      -0.1976
     13  CA       -86.2310  -31.8630  -40.9690 C.3    27  TYR27       0.1639
     14  C        -85.8450  -30.4130  -40.6700 C.2    27  TYR27       0.2290
     15  O        -84.7400  -30.1640  -40.1790 O.2    27  TYR27      -0.2864
     16  CB       -85.8650  -32.2830  -42.4180 C.3    27  TYR27       0.0560
     17  CG       -85.7920  -33.8170  -42.5460 C.ar   27  TYR27      -0.0198
     18  CD1      -86.9010  -34.5660  -42.9290 C.ar   27  TYR27      -0.0009
     19  CD2      -84.6370  -34.5110  -42.2010 C.ar   27  TYR27      -0.0009
     20  CE1      -86.8430  -35.9710  -43.0070 C.ar   27  TYR27       0.0417
     21  CE2      -84.5760  -35.9130  -42.2870 C.ar   27  TYR27       0.0417
     22  CZ       -85.6680  -36.6330  -42.6850 C.ar   27  TYR27       0.1957
     23  OH       -85.6140  -38.0300  -42.7370 O.3    27  TYR27      -0.2866
     24  N        -77.4540  -39.8090  -44.1170 N.3    90  ASN90      -0.1225
     25  CA       -78.5800  -40.4060  -43.3740 C.3    90  ASN90       0.1785
     26  C        -79.3440  -39.3600  -42.4940 C.2    90  ASN90       0.2598
     27  O        -78.7620  -38.3580  -42.0540 O.2    90  ASN90      -0.2718
     28  CB       -78.0990  -41.6710  -42.6080 C.3    90  ASN90       0.1169
     29  CG       -76.9620  -41.3790  -41.5880 C.2    90  ASN90       0.2627
     30  OD1      -76.3500  -42.3000  -41.0620 O.2    90  ASN90      -0.2716
     31  ND2      -76.7420  -40.0970  -41.2600 N.am   90  ASN90      -0.0877
     32  N        -80.6190  -39.5910  -42.1910 N.am   91  SER91      -0.1938
     33  CA       -81.3850  -38.6420  -41.3450 C.3    91  SER91       0.2040
     34  C        -80.7450  -37.9780  -40.1260 C.2    91  SER91       0.2485
     35  O        -80.8440  -36.7540  -39.9820 O.2    91  SER91      -0.2729
     36  CB       -82.7160  -39.2890  -40.9460 C.3    91  SER91       0.2129
     37  OG       -83.4750  -39.4190  -42.1340 O.3    91  SER91      -0.2179
     38  N        -80.0910  -38.7540  -39.2450 N.am   92  PRO92      -0.2726
     39  CA       -79.5180  -38.1000  -38.0740 C.3    92  PRO92       0.1402
     40  C        -78.6060  -36.9330  -38.4310 C.2    92  PRO92       0.2269
     41  O        -78.5970  -35.9530  -37.7040 O.2    92  PRO92      -0.2865
     42  CB       -78.7330  -39.2040  -37.3680 C.3    92  PRO92       0.0296
     43  CG       -79.3720  -40.4900  -37.8460 C.3    92  PRO92       0.0237
     44  CD       -79.8710  -40.2210  -39.2330 C.3    92  PRO92       0.0939
     45  N        -80.9340  -34.0600  -39.1080 N.3    95  PHE95      -0.1241
     46  CA       -81.6620  -33.5660  -37.9360 C.3    95  PHE95       0.1605
     47  C        -80.7470  -32.8160  -37.0360 C.2    95  PHE95       0.2264
     48  O        -81.1320  -31.8130  -36.4350 O.2    95  PHE95      -0.2867
     49  CB       -82.1850  -34.7510  -37.0980 C.3    95  PHE95       0.0534
     50  CG       -83.2420  -35.5710  -37.7640 C.ar   95  PHE95      -0.0203
     51  CD1      -84.2670  -34.9800  -38.5010 C.ar   95  PHE95      -0.0042
     52  CD2      -83.2720  -36.9360  -37.5780 C.ar   95  PHE95      -0.0042
     53  CE1      -85.2860  -35.7630  -39.0700 C.ar   95  PHE95      -0.0003
     54  CE2      -84.2730  -37.7110  -38.1320 C.ar   95  PHE95      -0.0003
     55  CZ       -85.2830  -37.1510  -38.8720 C.ar   95  PHE95      -0.0000
     56  N        -76.5490  -43.2120  -38.1530 N.3   133  ALA133     -0.1231
     57  CA       -77.7290  -44.0520  -37.9990 C.3   133  ALA133      0.1694
     58  C        -77.4580  -45.3790  -37.2290 C.2   133  ALA133      0.2592
     59  O        -78.3390  -45.8680  -36.5740 O.2   133  ALA133     -0.2718
     60  CB       -78.3370  -44.3400  -39.3310 C.3   133  ALA133      0.0304
     61  N        -76.2650  -45.9630  -37.3130 N.am  134  CYS134     -0.1970
     62  CA       -76.1130  -47.4180  -37.0490 C.3   134  CYS134      0.1712
     63  C        -75.2350  -47.7560  -35.8660 C.2   134  CYS134      0.2296
     64  O        -74.1060  -47.3240  -35.8390 O.2   134  CYS134     -0.2864
     65  CB       -75.5040  -48.1070  -38.2860 C.3   134  CYS134      0.0983
     66  SG       -76.4980  -47.8570  -39.7860 S.3   134  CYS134     -0.0798
     67  N        -80.2220  -46.1000  -34.2220 N.3   162  GLY162     -0.1225
     68  CA       -80.8610  -47.4320  -34.1820 C.3   162  GLY162      0.1811
     69  C        -79.7940  -48.4610  -33.8240 C.2   162  GLY162      0.2280
     70  O        -78.7240  -48.4740  -34.4390 O.2   162  GLY162     -0.2866
     71  N        -77.1280  -53.4970  -37.5850 N.3   310  ASN310     -0.1226
     72  CA       -78.0340  -52.4460  -37.1490 C.3   310  ASN310      0.1770
     73  C        -79.4540  -52.9340  -37.5320 C.2   310  ASN310      0.2439
     74  O        -79.5750  -53.9710  -38.2080 O.2   310  ASN310     -0.2733
     75  CB       -77.6850  -51.1710  -37.9310 C.3   310  ASN310      0.1168
     76  CG       -78.0490  -51.2970  -39.4410 C.2   310  ASN310      0.2627
     77  OD1      -77.5580  -52.1750  -40.1240 O.2   310  ASN310     -0.2716
     78  ND2      -78.9250  -50.4290  -39.9330 N.am  310  ASN310     -0.0877
     79  N        -80.5230  -52.2140  -37.1030 N.am  311  PRO311     -0.2718
     80  CA       -81.9130  -52.6810  -37.2630 C.3   311  PRO311      0.1535
     81  C        -82.3270  -53.0640  -38.6580 C.2   311  PRO311      0.2598
     82  O        -83.2570  -53.8670  -38.8200 O.2   311  PRO311     -0.2715
     83  CB       -82.7540  -51.4620  -36.8470 C.3   311  PRO311      0.0310
     84  CG       -81.8580  -50.7460  -35.7870 C.3   311  PRO311      0.0237
     85  CD       -80.4480  -50.9250  -36.3620 C.3   311  PRO311      0.0939
     86  N        -81.7340  -52.4220  -39.6670 N.am  312  CYS312     -0.1968
     87  CA       -82.1920  -52.6800  -41.0500 C.3   312  CYS312      0.1712
     88  C        -81.3250  -53.6820  -41.8290 C.2   312  CYS312      0.2296
     89  O        -81.6150  -54.0030  -42.9940 O.2   312  CYS312     -0.2864
     90  CB       -82.3420  -51.3810  -41.8160 C.3   312  CYS312      0.0983
     91  SG       -83.8700  -50.4350  -41.2570 S.3   312  CYS312     -0.0798
     92  N        -78.1270  -53.4220  -42.9120 N.3   314  GLU314     -0.1245
     93  CA       -77.1330  -53.1000  -43.9500 C.3   314  GLU314      0.1567
     94  C        -75.7440  -52.9100  -43.4360 C.2   314  GLU314      0.2260
     95  O        -74.8080  -53.0030  -44.2340 O.2   314  GLU314     -0.2867
     96  CB       -77.5080  -51.9480  -44.8440 C.3   314  GLU314      0.0388
     97  CG       -77.3850  -50.5670  -44.1790 C.3   314  GLU314      0.1160
     98  CD       -78.6390  -50.1200  -43.3730 C.2   314  GLU314      0.3649
     99  OE1      -79.3660  -50.9330  -42.7770 O.co2 314  GLU314     -0.2457
    100  OE2      -78.8880  -48.8880  -43.3010 O.co2 314  GLU314     -0.2457
    101  N        -74.1070  -43.1730  -42.6410 N.3   325  LEU325     -0.1245
    102  CA       -74.4420  -43.4740  -44.0000 C.3   325  LEU325      0.1561
    103  C        -74.7620  -42.2260  -44.8170 C.2   325  LEU325      0.2260
    104  O        -75.0240  -41.1440  -44.2540 O.2   325  LEU325     -0.2867
    105  CB       -75.6870  -44.3800  -44.0260 C.3   325  LEU325      0.0270
    106  CG       -75.8430  -45.5780  -43.0740 C.3   325  LEU325      0.0019
    107  CD1      -76.9160  -46.4650  -43.6420 C.3   325  LEU325      0.0001
    108  CD2      -74.6660  -46.3640  -43.0150 C.3   325  LEU325      0.0001
    109  N        -78.6360  -48.9210  -48.2420 N.3   479  ALA479     -0.1231
    110  CA       -79.4830  -48.7840  -47.0830 C.3   479  ALA479      0.1679
    111  C        -80.9280  -48.7750  -47.6330 C.2   479  ALA479      0.2434
    112  O        -81.0790  -48.7440  -48.8700 O.2   479  ALA479     -0.2733
    113  CB       -79.2000  -47.4930  -46.4060 C.3   479  ALA479      0.0304
    114  N        -81.9680  -48.8400  -46.7400 N.am  480  PRO480     -0.2718
    115  CA       -83.3650  -48.6620  -47.2230 C.3   480  PRO480      0.1535
    116  C        -83.6270  -47.2850  -47.7940 C.2   480  PRO480      0.2599
    117  O        -84.4540  -47.1690  -48.6810 O.2   480  PRO480     -0.2715
    118  CB       -84.2320  -48.8820  -45.9550 C.3   480  PRO480      0.0310
    119  CG       -83.2530  -49.6880  -45.0050 C.3   480  PRO480      0.0237
    120  CD       -81.9280  -49.1020  -45.2910 C.3   480  PRO480      0.0939
    121  N        -82.9450  -46.2600  -47.2810 N.am  481  THR481     -0.1937
    122  CA       -83.2010  -44.8440  -47.6630 C.3   481  THR481      0.2028
    123  C        -84.7270  -44.4910  -47.6610 C.2   481  THR481      0.2643
    124  O        -85.2130  -43.7930  -48.5240 O.2   481  THR481     -0.2714
    125  CB       -82.4990  -44.4180  -49.0070 C.3   481  THR481      0.1808
    126  OG1      -83.1690  -45.0380  -50.1030 O.3   481  THR481     -0.2208
    127  CG2      -81.0200  -44.8030  -49.0110 C.3   481  THR481      0.0379
    128  N        -85.4320  -44.9320  -46.6220 N.am  482  GLY482     -0.1939
    129  CA       -86.8730  -44.7370  -46.5180 C.3   482  GLY482      0.2014
    130  C        -87.3110  -43.2890  -46.5120 C.2   482  GLY482      0.2640
    131  O        -88.3360  -42.9640  -47.1500 O.2   482  GLY482     -0.2714
    132  N        -86.5910  -42.4220  -45.7860 N.am  483  SER483     -0.1935
    133  CA       -86.9060  -40.9880  -45.8000 C.3   483  SER483      0.2055
    134  C        -86.0950  -40.1460  -46.7900 C.2   483  SER483      0.2642
    135  O        -86.6470  -39.2430  -47.4430 O.2   483  SER483     -0.2714
    136  CB       -86.7790  -40.3820  -44.4070 C.3   483  SER483      0.2130
    137  OG       -87.6400  -41.0330  -43.4890 O.3   483  SER483     -0.2179
    138  N        -84.7970  -40.3890  -46.8930 N.am  484  ILE484     -0.1977
    139  CA       -83.9660  -39.5330  -47.7550 C.3   484  ILE484      0.1596
    140  C        -84.2820  -39.6620  -49.2500 C.2   484  ILE484      0.2287
    141  O        -84.0700  -38.7020  -50.0250 O.2   484  ILE484     -0.2864
    142  CB       -82.4400  -39.5930  -47.4370 C.3   484  ILE484      0.0276
    143  CG1      -81.8320  -40.9690  -47.7510 C.3   484  ILE484      0.0022
    144  CG2      -82.1950  -39.1830  -45.9930 C.3   484  ILE484      0.0022
    145  CD1      -80.3090  -41.0420  -47.6000 C.3   484  ILE484      0.0001
    146  N        -87.3380  -40.0290  -50.2890 N.3   486  ASN486     -0.1240
    147  CA       -88.5370  -39.1650  -50.4520 C.3   486  ASN486      0.1653
    148  C        -88.1400  -37.6940  -50.5940 C.2   486  ASN486      0.2266
    149  O        -88.6740  -36.9800  -51.4480 O.2   486  ASN486     -0.2867
    150  CB       -89.5560  -39.3630  -49.3290 C.3   486  ASN486      0.1155
    151  CG       -90.2160  -40.7320  -49.3960 C.2   486  ASN486      0.2627
    152  OD1      -90.4060  -41.4130  -48.3670 O.2   486  ASN486     -0.2716
    153  ND2      -90.5600  -41.1500  -50.6070 N.am  486  ASN486     -0.0877
    154  N        -99.1380  -42.3860  -50.1900 N.3   504  ARG504     -0.1231
    155  CA       -98.3970  -42.5210  -48.9290 C.3   504  ARG504      0.1694
    156  C        -98.9160  -41.6060  -47.7860 C.2   504  ARG504      0.2592
    157  O        -99.4370  -40.5180  -48.0380 O.2   504  ARG504     -0.2718
    158  CB       -96.9130  -42.2410  -49.2320 C.3   504  ARG504      0.0321
    159  CG       -95.9010  -43.1570  -48.5460 C.3   504  ARG504      0.0489
    160  CD       -94.5160  -43.0520  -49.1970 C.3   504  ARG504      0.2205
    161  NE       -93.4610  -43.4960  -48.2810 N.pl3 504  ARG504     -0.0865
    162  CZ       -92.2640  -43.9630  -48.6500 C.cat 504  ARG504      0.5346
    163  NH1      -91.9400  -44.0750  -49.9380 N.pl3 504  ARG504      0.1354
    164  NH2      -91.3820  -44.3310  -47.7230 N.pl3 504  ARG504      0.1354
    165  N        -98.7850  -42.0550  -46.5370 N.am  505  PHE505     -0.1976
    166  CA       -99.1700  -41.2390  -45.3710 C.3   505  PHE505      0.1639
    167  C        -97.9680  -40.9500  -44.4560 C.2   505  PHE505      0.2290
    168  O        -97.8120  -39.8470  -43.9180 O.2   505  PHE505     -0.2864
    169  CB      -100.3050  -41.9180  -44.5780 C.3   505  PHE505      0.0560
    170  CG      -101.6150  -42.0200  -45.3390 C.ar  505  PHE505     -0.0200
    171  CD1     -101.8970  -43.1420  -46.1360 C.ar  505  PHE505     -0.0042
    172  CD2     -102.5690  -40.9920  -45.2620 C.ar  505  PHE505     -0.0042
    173  CE1     -103.1100  -43.2390  -46.8480 C.ar  505  PHE505     -0.0003
    174  CE2     -103.7870  -41.0770  -45.9720 C.ar  505  PHE505     -0.0003
    175  CZ      -104.0540  -42.2040  -46.7700 C.ar  505  PHE505     -0.0000
@<TRIPOS>BOND
     1   149   148    2
     2   153   151   am
     3   148   147    1
     4   147   146    1
     5   147   150    1
     6   154   155    1
     7   126   125    1
     8   141   140    2
     9   163   162    1
    10   151   150    1
    11   151   152    2
    12   140   139    1
    13   158   155    1
    14   158   159    1
    15   160   159    1
    16   160   161    1
    17   127   125    1
    18   125   122    1
    19   155   156    1
    20   112   111    2
    21   117   116    2
    22   162   161    2
    23   162   164    1
    24   124   123    2
    25   109   110    1
    26   157   156    2
    27   116   121   am
    28   116   115    1
    29   156   165   am
    30   139   142    1
    31   139   138    1
    32   143   145    1
    33   143   142    1
    34   122   123    1
    35   122   121    1
    36   123   128   am
    37   111   110    1
    38   111   114   am
    39   135   134    2
    40   142   144    1
    41   115   114    1
    42   115   118    1
    43   131   130    2
    44   110   113    1
    45   138   134   am
    46   173   175   ar
    47   173   171   ar
    48   134   133    1
    49   175   174   ar
    50   114   120    1
    51   128   129    1
    52   165   166    1
    53   129   130    1
    54   130   132   am
    55   171   170   ar
    56   174   172   ar
    57   118   119    1
    58   133   132    1
    59   133   136    1
    60   166   169    1
    61   166   167    1
    62   170   172   ar
    63   170   169    1
    64   120   119    1
    65    96    97    1
    66    96    93    1
    67   103   104    2
    68   103   102    1
    69   167   168    2
    70   136   137    1
    71    95    94    2
    72    97    98    1
    73    24    25    1
    74   105   102    1
    75   105   106    1
    76   102   101    1
    77    93    94    1
    78    93    92    1
    79   107   106    1
    80    25    28    1
    81    25    26    1
    82    98   100   ar
    83    98    99   ar
    84   106   108    1
    85    20    18   ar
    86    20    22   ar
    87    89    88    2
    88    18    17   ar
    89    11     9    1
    90    23    22    1
    91    22    21   ar
    92    28    29    1
    93    17    16    1
    94    17    19   ar
    95    26    32   am
    96    26    27    2
    97    16    13    1
    98    21    19   ar
    99    32    33    1
   100    37    36    1
   101    88    87    1
   102    90    91    1
   103    90    87    1
   104     9     8    2
   105     9    10    1
   106    29    31   am
   107    29    30    2
   108    33    36    1
   109    33    34    1
   110     8     7    1
   111    87    86    1
   112    13    14    1
   113    13    12    1
   114    14    15    2
   115    12     3   am
   116     1     2    1
   117    34    35    2
   118    34    38   am
   119    77    76    2
   120    78    76   am
   121     5     6    1
   122     5     2    1
   123     6     7    1
   124    66    65    1
   125    86    81   am
   126     3     2    1
   127     3     4    2
   128    76    75    1
   129    60    57    1
   130    38    44    1
   131    38    39    1
   132    44    43    1
   133    45    46    1
   134    53    55   ar
   135    53    51   ar
   136    55    54   ar
   137    82    81    2
   138    81    80    1
   139    51    50   ar
   140    40    39    1
   141    40    41    2
   142    65    62    1
   143    74    73    2
   144    56    57    1
   145    54    52   ar
   146    39    42    1
   147    57    58    1
   148    46    49    1
   149    46    47    1
   150    75    72    1
   151    43    42    1
   152    50    52   ar
   153    50    49    1
   154    71    72    1
   155    73    72    1
   156    73    79   am
   157    61    58   am
   158    61    62    1
   159    80    79    1
   160    80    83    1
   161    58    59    2
   162    79    85    1
   163    62    63    1
   164    47    48    2
   165    83    84    1
   166    85    84    1
   167    63    64    2
   168    70    69    2
   169    67    68    1
   170    68    69    1
