@<TRIPOS>MOLECULE
tmp/1xjkB00.pdb
 133 127 0 0 0
SMALL
GASTEIGER

@<TRIPOS>ATOM
      1  N        -77.7690  -39.9890  -44.1080 N.3    90  ASN90      -0.1225
      2  CA       -78.8300  -40.5650  -43.2800 C.3    90  ASN90       0.1785
      3  C        -79.4860  -39.5030  -42.4140 C.2    90  ASN90       0.2598
      4  O        -78.8440  -38.4840  -42.0350 O.2    90  ASN90      -0.2718
      5  CB       -78.3310  -41.7810  -42.4760 C.3    90  ASN90       0.1169
      6  CG       -77.1550  -41.4530  -41.4870 C.2    90  ASN90       0.2627
      7  OD1      -76.4910  -42.3560  -41.0160 O.2    90  ASN90      -0.2716
      8  ND2      -76.9490  -40.1840  -41.1550 N.am   90  ASN90      -0.0877
      9  N        -80.7670  -39.7200  -42.1380 N.am   91  SER91      -0.1938
     10  CA       -81.5950  -38.8240  -41.3580 C.3    91  SER91       0.2040
     11  C        -80.9630  -38.2100  -40.1320 C.2    91  SER91       0.2485
     12  O        -81.0790  -36.9880  -39.9420 O.2    91  SER91      -0.2729
     13  CB       -82.9420  -39.4800  -40.9730 C.3    91  SER91       0.2129
     14  OG       -83.7910  -39.4870  -42.1070 O.3    91  SER91      -0.2179
     15  N        -80.2900  -39.0170  -39.2970 N.am   92  PRO92      -0.2726
     16  CA       -79.7460  -38.3950  -38.0900 C.3    92  PRO92       0.1402
     17  C        -78.8140  -37.2130  -38.3590 C.2    92  PRO92       0.2269
     18  O        -78.7380  -36.2790  -37.5740 O.2    92  PRO92      -0.2865
     19  CB       -79.0220  -39.5550  -37.3970 C.3    92  PRO92       0.0296
     20  CG       -79.6730  -40.7150  -37.8810 C.3    92  PRO92       0.0237
     21  CD       -79.9970  -40.4600  -39.3170 C.3    92  PRO92       0.0939
     22  N        -76.8450  -43.3180  -38.1610 N.3   133  ALA133     -0.1231
     23  CA       -77.9970  -44.1800  -38.0150 C.3   133  ALA133      0.1694
     24  C        -77.7280  -45.4240  -37.1300 C.2   133  ALA133      0.2592
     25  O        -78.5480  -45.7160  -36.2880 O.2   133  ALA133     -0.2718
     26  CB       -78.5510  -44.5630  -39.3440 C.3   133  ALA133      0.0304
     27  N        -76.5790  -46.0900  -37.2650 N.am  134  CYS134     -0.1970
     28  CA       -76.4610  -47.5180  -36.9400 C.3   134  CYS134      0.1712
     29  C        -75.4960  -47.7780  -35.8180 C.2   134  CYS134      0.2296
     30  O        -74.3480  -47.3290  -35.8830 O.2   134  CYS134     -0.2864
     31  CB       -75.8900  -48.2770  -38.1230 C.3   134  CYS134      0.0983
     32  SG       -76.6070  -47.7950  -39.7140 S.3   134  CYS134     -0.0798
     33  N        -81.1310  -40.7050  -31.1970 N.3   160  GLY160     -0.1210
     34  CA       -81.5680  -40.9090  -32.5530 C.3   160  GLY160      0.1956
     35  C        -81.0830  -42.1430  -33.2920 C.2   160  GLY160      0.2612
     36  O        -81.2840  -42.2480  -34.5020 O.2   160  GLY160     -0.2717
     37  N        -80.4330  -43.0670  -32.6050 N.am  161  GLY161     -0.1942
     38  CA       -79.8190  -44.2130  -33.3030 C.3   161  GLY161      0.2014
     39  C        -80.7090  -45.4220  -33.3720 C.2   161  GLY161      0.2639
     40  O        -81.5750  -45.6030  -32.5370 O.2   161  GLY161     -0.2714
     41  N        -80.5080  -46.2600  -34.3810 N.am  162  GLY162     -0.1954
     42  CA       -81.0580  -47.5840  -34.3230 C.3   162  GLY162      0.1869
     43  C        -79.9850  -48.5080  -33.8080 C.2   162  GLY162      0.2309
     44  O        -78.8280  -48.4270  -34.2740 O.2   162  GLY162     -0.2863
     45  N        -89.4560  -44.3230  -26.5740 N.3   202  LYS202     -0.1245
     46  CA       -90.1200  -43.8600  -27.7910 C.3   202  LYS202      0.1561
     47  C        -91.5860  -43.4150  -27.6810 C.2   202  LYS202      0.2260
     48  O        -92.2160  -43.1520  -28.6930 O.2   202  LYS202     -0.2867
     49  CB       -89.9330  -44.8670  -28.9400 C.3   202  LYS202      0.0271
     50  CG       -88.4690  -44.8940  -29.4040 C.3   202  LYS202      0.0035
     51  CD       -88.3280  -45.0840  -30.9100 C.3   202  LYS202      0.0206
     52  CE       -87.2050  -44.1700  -31.4280 C.3   202  LYS202      0.1093
     53  NZ       -86.3860  -44.7480  -32.5630 N.3   202  LYS202     -0.1314
     54  N        -87.4840  -51.5610  -35.2270 N.3   204  ALA204     -0.1245
     55  CA       -86.6670  -50.3400  -34.9910 C.3   204  ALA204      0.1562
     56  C        -85.4390  -50.6220  -34.0970 C.2   204  ALA204      0.2260
     57  O        -84.5820  -49.7660  -33.9120 O.2   204  ALA204     -0.2867
     58  CB       -87.5090  -49.2120  -34.4070 C.3   204  ALA204      0.0290
     59  N        -77.4360  -53.7710  -37.5650 N.3   310  ASN310     -0.1226
     60  CA       -78.2460  -52.6760  -37.1160 C.3   310  ASN310      0.1770
     61  C        -79.7050  -53.0470  -37.4150 C.2   310  ASN310      0.2439
     62  O        -79.9790  -54.0560  -38.0910 O.2   310  ASN310     -0.2733
     63  CB       -77.8140  -51.4230  -37.9090 C.3   310  ASN310      0.1168
     64  CG       -78.2010  -51.4990  -39.4150 C.2   310  ASN310      0.2627
     65  OD1      -77.7560  -52.3690  -40.1430 O.2   310  ASN310     -0.2716
     66  ND2      -79.0300  -50.5790  -39.8530 N.am  310  ASN310     -0.0877
     67  N        -80.6610  -52.2430  -36.9550 N.am  311  PRO311     -0.2718
     68  CA       -82.0510  -52.6690  -37.1450 C.3   311  PRO311      0.1535
     69  C        -82.4710  -53.1400  -38.5350 C.2   311  PRO311      0.2598
     70  O        -83.3410  -54.0030  -38.6210 O.2   311  PRO311     -0.2715
     71  CB       -82.8410  -51.4320  -36.7120 C.3   311  PRO311      0.0310
     72  CG       -81.9600  -50.8780  -35.6220 C.3   311  PRO311      0.0237
     73  CD       -80.5980  -50.9600  -36.2280 C.3   311  PRO311      0.0939
     74  N        -81.8760  -52.6110  -39.6160 N.am  312  CYS312     -0.1968
     75  CA       -82.3560  -53.0070  -40.9630 C.3   312  CYS312      0.1712
     76  C        -81.5010  -53.9830  -41.7770 C.2   312  CYS312      0.2296
     77  O        -81.8960  -54.3610  -42.9010 O.2   312  CYS312     -0.2864
     78  CB       -82.6090  -51.7650  -41.7970 C.3   312  CYS312      0.0983
     79  SG       -84.0540  -50.8440  -41.1990 S.3   312  CYS312     -0.0798
     80  N        -78.1290  -53.6830  -42.8690 N.3   314  GLU314     -0.1245
     81  CA       -77.1850  -53.2630  -43.9150 C.3   314  GLU314      0.1567
     82  C        -75.7820  -53.0330  -43.3910 C.2   314  GLU314      0.2260
     83  O        -74.7990  -53.0090  -44.1870 O.2   314  GLU314     -0.2867
     84  CB       -77.7090  -52.0670  -44.7420 C.3   314  GLU314      0.0388
     85  CG       -77.5720  -50.6540  -44.0900 C.3   314  GLU314      0.1160
     86  CD       -78.7550  -50.2880  -43.2270 C.2   314  GLU314      0.3649
     87  OE1      -79.5120  -51.1980  -42.8230 O.co2 314  GLU314     -0.2457
     88  OE2      -78.9320  -49.0870  -42.9340 O.co2 314  GLU314     -0.2457
     89  N        -74.4970  -43.3000  -42.5160 N.3   325  LEU325     -0.1245
     90  CA       -74.8240  -43.5830  -43.9000 C.3   325  LEU325      0.1561
     91  C        -75.1060  -42.3430  -44.7530 C.2   325  LEU325      0.2260
     92  O        -75.2840  -41.2280  -44.2500 O.2   325  LEU325     -0.2867
     93  CB       -75.9950  -44.5720  -43.9720 C.3   325  LEU325      0.0270
     94  CG       -75.9720  -45.7630  -42.9920 C.3   325  LEU325      0.0019
     95  CD1      -76.9360  -46.7840  -43.4440 C.3   325  LEU325      0.0001
     96  CD2      -74.6310  -46.4110  -42.7470 C.3   325  LEU325      0.0001
     97  N        -78.8220  -49.0780  -48.0750 N.3   479  ALA479     -0.1231
     98  CA       -79.7210  -48.8520  -46.9470 C.3   479  ALA479      0.1679
     99  C        -81.1900  -48.8770  -47.4520 C.2   479  ALA479      0.2434
    100  O        -81.4160  -48.7580  -48.6650 O.2   479  ALA479     -0.2733
    101  CB       -79.4390  -47.5070  -46.3530 C.3   479  ALA479      0.0304
    102  N        -82.1740  -49.0380  -46.5390 N.am  480  PRO480     -0.2718
    103  CA       -83.5810  -48.8690  -46.9750 C.3   480  PRO480      0.1535
    104  C        -83.8880  -47.5110  -47.6460 C.2   480  PRO480      0.2599
    105  O        -84.6500  -47.4900  -48.5740 O.2   480  PRO480     -0.2715
    106  CB       -84.3940  -49.0350  -45.6570 C.3   480  PRO480      0.0310
    107  CG       -83.5190  -49.8250  -44.7930 C.3   480  PRO480      0.0237
    108  CD       -82.0970  -49.4200  -45.1130 C.3   480  PRO480      0.0939
    109  N        -83.2900  -46.4070  -47.1880 N.am  481  THR481     -0.1937
    110  CA       -83.6050  -45.0130  -47.6500 C.3   481  THR481      0.2028
    111  C        -85.1160  -44.6210  -47.5910 C.2   481  THR481      0.2643
    112  O        -85.6420  -43.9270  -48.4560 O.2   481  THR481     -0.2714
    113  CB       -82.9170  -44.5780  -49.0160 C.3   481  THR481      0.1808
    114  OG1      -83.4850  -45.3150  -50.0960 O.3   481  THR481     -0.2208
    115  CG2      -81.3820  -44.7910  -48.9980 C.3   481  THR481      0.0379
    116  N        -85.7740  -45.0470  -46.5210 N.am  482  GLY482     -0.1939
    117  CA       -87.1990  -44.8460  -46.3410 C.3   482  GLY482      0.2014
    118  C        -87.5920  -43.4010  -46.4190 C.2   482  GLY482      0.2640
    119  O        -88.5160  -43.0440  -47.1870 O.2   482  GLY482     -0.2714
    120  N        -86.9130  -42.5580  -45.6370 N.am  483  SER483     -0.1935
    121  CA       -87.1830  -41.1170  -45.6480 C.3   483  SER483      0.2055
    122  C        -86.4460  -40.3100  -46.7040 C.2   483  SER483      0.2642
    123  O        -87.0730  -39.5030  -47.4010 O.2   483  SER483     -0.2714
    124  CB       -86.8620  -40.4990  -44.2890 C.3   483  SER483      0.2130
    125  OG       -87.7280  -40.9620  -43.2930 O.3   483  SER483     -0.2179
    126  N        -85.1310  -40.4770  -46.8070 N.am  484  ILE484     -0.1977
    127  CA       -84.3160  -39.6490  -47.7000 C.3   484  ILE484      0.1596
    128  C        -84.6190  -39.8280  -49.1890 C.2   484  ILE484      0.2287
    129  O        -84.4080  -38.9090  -49.9770 O.2   484  ILE484     -0.2864
    130  CB       -82.7740  -39.7710  -47.4390 C.3   484  ILE484      0.0276
    131  CG1      -82.2340  -41.1650  -47.7830 C.3   484  ILE484      0.0022
    132  CG2      -82.4610  -39.4290  -45.9760 C.3   484  ILE484      0.0022
    133  CD1      -80.6790  -41.2980  -47.6440 C.3   484  ILE484      0.0001
@<TRIPOS>BOND
     1   114   113    1
     2   129   128    2
     3   128   127    1
     4   113   115    1
     5   113   110    1
     6   100    99    2
     7   105   104    2
     8   112   111    2
     9    97    98    1
    10   131   133    1
    11   131   130    1
    12   127   130    1
    13   127   126    1
    14   110   111    1
    15   110   109    1
    16   104   109   am
    17   104   103    1
    18   111   116   am
    19    99    98    1
    20    99   102   am
    21   130   132    1
    22   123   122    2
    23   119   118    2
    24   103   102    1
    25   103   106    1
    26    98   101    1
    27   126   122   am
    28   122   121    1
    29   102   108    1
    30   116   117    1
    31   118   117    1
    32   118   120   am
    33   106   107    1
    34   121   120    1
    35   121   124    1
    36   108   107    1
    37    91    92    2
    38    91    90    1
    39    84    85    1
    40    84    81    1
    41   124   125    1
    42    83    82    2
    43     1     2    1
    44    85    86    1
    45    93    90    1
    46    93    94    1
    47    81    82    1
    48    81    80    1
    49    90    89    1
    50    95    94    1
    51     2     5    1
    52     2     3    1
    53    86    88   ar
    54    86    87   ar
    55    94    96    1
    56    77    76    2
    57     5     6    1
    58     3     9   am
    59     3     4    2
    60     9    10    1
    61    14    13    1
    62    78    79    1
    63    78    75    1
    64    76    75    1
    65     6     8   am
    66     6     7    2
    67    10    13    1
    68    10    11    1
    69    75    74    1
    70    65    64    2
    71    11    12    2
    72    11    15   am
    73    66    64   am
    74    32    31    1
    75    74    69   am
    76    64    63    1
    77    26    23    1
    78    21    15    1
    79    21    20    1
    80    15    16    1
    81    70    69    2
    82    69    68    1
    83    17    16    1
    84    17    18    2
    85    22    23    1
    86    31    28    1
    87    62    61    2
    88    16    19    1
    89    23    24    1
    90    63    60    1
    91    20    19    1
    92    59    60    1
    93    61    60    1
    94    61    67   am
    95    27    24   am
    96    27    28    1
    97    68    67    1
    98    68    71    1
    99    24    25    2
   100    67    73    1
   101    28    29    1
   102    71    72    1
   103    73    72    1
   104    30    29    2
   105    54    55    1
   106    55    58    1
   107    55    56    1
   108    36    35    2
   109    41    42    1
   110    41    39   am
   111    42    43    1
   112    44    43    2
   113    56    57    2
   114    39    38    1
   115    39    40    2
   116    38    37    1
   117    35    37   am
   118    35    34    1
   119    53    52    1
   120    34    33    1
   121    52    51    1
   122    51    50    1
   123    50    49    1
   124    49    46    1
   125    48    47    2
   126    46    47    1
   127    46    45    1
