@<TRIPOS>MOLECULE
tmp/1xjmB02.pdb
 153 148 0 0 0
SMALL
GASTEIGER

@<TRIPOS>ATOM
      1  N        -90.2560  -32.8970  -39.9330 N.3    26  ARG26      -0.1231
      2  CA       -89.1820  -33.4360  -39.0800 C.3    26  ARG26       0.1694
      3  C        -87.7280  -33.0210  -39.3670 C.2    26  ARG26       0.2592
      4  O        -86.8480  -33.2890  -38.5570 O.2    26  ARG26      -0.2718
      5  CB       -89.3210  -34.9600  -38.9010 C.3    26  ARG26       0.0321
      6  CG       -89.0670  -35.7790  -40.1460 C.3    26  ARG26       0.0489
      7  CD       -90.3640  -36.2600  -40.8360 C.3    26  ARG26       0.2205
      8  NE       -90.9290  -37.4440  -40.1880 N.pl3  26  ARG26      -0.0865
      9  CZ       -90.6200  -38.7070  -40.4900 C.cat  26  ARG26       0.5346
     10  NH1      -89.7510  -38.9800  -41.4660 N.pl3  26  ARG26       0.1354
     11  NH2      -91.1940  -39.7050  -39.8060 N.pl3  26  ARG26       0.1354
     12  N        -87.4670  -32.3220  -40.4720 N.am   27  TYR27      -0.1976
     13  CA       -86.0710  -31.9900  -40.8140 C.3    27  TYR27       0.1639
     14  C        -85.6700  -30.5340  -40.5660 C.2    27  TYR27       0.2290
     15  O        -84.5790  -30.2800  -40.0530 O.2    27  TYR27      -0.2864
     16  CB       -85.7270  -32.4280  -42.2450 C.3    27  TYR27       0.0560
     17  CG       -85.7180  -33.9320  -42.4180 C.ar   27  TYR27      -0.0198
     18  CD1      -86.8720  -34.6120  -42.7530 C.ar   27  TYR27      -0.0009
     19  CD2      -84.5590  -34.6650  -42.2150 C.ar   27  TYR27      -0.0009
     20  CE1      -86.8760  -35.9780  -42.9030 C.ar   27  TYR27       0.0417
     21  CE2      -84.5400  -36.0290  -42.3660 C.ar   27  TYR27       0.0417
     22  CZ       -85.7000  -36.6880  -42.7110 C.ar   27  TYR27       0.1957
     23  OH       -85.7020  -38.0590  -42.8490 O.3    27  TYR27      -0.2866
     24  N        -77.6450  -40.0170  -44.2110 N.3    90  ASN90      -0.1225
     25  CA       -78.6970  -40.5480  -43.3470 C.3    90  ASN90       0.1785
     26  C        -79.2880  -39.4650  -42.4720 C.2    90  ASN90       0.2598
     27  O        -78.6080  -38.4860  -42.1220 O.2    90  ASN90      -0.2718
     28  CB       -78.2420  -41.7970  -42.5490 C.3    90  ASN90       0.1169
     29  CG       -77.0720  -41.5330  -41.5690 C.2    90  ASN90       0.2627
     30  OD1      -76.4480  -42.4840  -41.0720 O.2    90  ASN90      -0.2716
     31  ND2      -76.8080  -40.2590  -41.2450 N.am   90  ASN90      -0.0877
     32  N        -80.5670  -39.6210  -42.1710 N.am   91  SER91      -0.1938
     33  CA       -81.4150  -38.6780  -41.4630 C.3    91  SER91       0.2040
     34  C        -80.8150  -38.0780  -40.2120 C.2    91  SER91       0.2485
     35  O        -81.0090  -36.8900  -39.9810 O.2    91  SER91      -0.2729
     36  CB       -82.7580  -39.3350  -41.1110 C.3    91  SER91       0.2129
     37  OG       -83.6200  -39.3270  -42.2430 O.3    91  SER91      -0.2179
     38  N        -80.1600  -38.8910  -39.3490 N.am   92  PRO92      -0.2726
     39  CA       -79.5860  -38.2420  -38.1860 C.3    92  PRO92       0.1402
     40  C        -78.6660  -37.0960  -38.5220 C.2    92  PRO92       0.2269
     41  O        -78.5280  -36.1800  -37.7360 O.2    92  PRO92      -0.2865
     42  CB       -78.8320  -39.3850  -37.4710 C.3    92  PRO92       0.0296
     43  CG       -79.5560  -40.5810  -37.8840 C.3    92  PRO92       0.0237
     44  CD       -79.9980  -40.3570  -39.2790 C.3    92  PRO92       0.0939
     45  N        -81.0010  -34.1580  -39.1080 N.3    95  PHE95      -0.1241
     46  CA       -81.6830  -33.7230  -37.9070 C.3    95  PHE95       0.1605
     47  C        -80.6870  -33.0040  -36.9790 C.2    95  PHE95       0.2264
     48  O        -81.0140  -31.9850  -36.3690 O.2    95  PHE95      -0.2867
     49  CB       -82.2230  -34.9240  -37.0990 C.3    95  PHE95       0.0534
     50  CG       -83.3060  -35.7580  -37.7710 C.ar   95  PHE95      -0.0203
     51  CD1      -84.3200  -35.1830  -38.5520 C.ar   95  PHE95      -0.0042
     52  CD2      -83.3740  -37.1310  -37.4890 C.ar   95  PHE95      -0.0042
     53  CE1      -85.3590  -36.0060  -39.1060 C.ar   95  PHE95      -0.0003
     54  CE2      -84.3760  -37.9590  -38.0360 C.ar   95  PHE95      -0.0003
     55  CZ       -85.3750  -37.3990  -38.8460 C.ar   95  PHE95      -0.0000
     56  N        -76.7260  -43.3860  -38.1900 N.3   133  ALA133     -0.1231
     57  CA       -77.9330  -44.2000  -38.0400 C.3   133  ALA133      0.1694
     58  C        -77.7510  -45.5550  -37.3030 C.2   133  ALA133      0.2592
     59  O        -78.6790  -46.0110  -36.6440 O.2   133  ALA133     -0.2718
     60  CB       -78.5540  -44.4160  -39.3770 C.3   133  ALA133      0.0304
     61  N        -76.5740  -46.1910  -37.4050 N.am  134  CYS134     -0.1970
     62  CA       -76.4700  -47.6410  -37.1800 C.3   134  CYS134      0.1712
     63  C        -75.5500  -48.0100  -36.0390 C.2   134  CYS134      0.2296
     64  O        -74.3710  -47.6290  -36.0290 O.2   134  CYS134     -0.2864
     65  CB       -75.9440  -48.3360  -38.4470 C.3   134  CYS134      0.0983
     66  SG       -76.8890  -47.9890  -39.9660 S.3   134  CYS134     -0.0798
     67  N        -80.4050  -46.2410  -34.3820 N.3   162  GLY162     -0.1225
     68  CA       -81.0610  -47.5430  -34.3250 C.3   162  GLY162      0.1811
     69  C        -80.0150  -48.5960  -33.9420 C.2   162  GLY162      0.2280
     70  O        -78.9130  -48.6400  -34.4890 O.2   162  GLY162     -0.2866
     71  N        -77.5500  -53.6240  -37.7200 N.3   307  ASN307     -0.1226
     72  CA       -78.4330  -52.5560  -37.2910 C.3   307  ASN307      0.1770
     73  C        -79.8720  -53.0250  -37.6310 C.2   307  ASN307      0.2439
     74  O        -80.0390  -54.0290  -38.3360 O.2   307  ASN307     -0.2733
     75  CB       -78.0360  -51.2970  -38.0890 C.3   307  ASN307      0.1168
     76  CG       -78.3200  -51.4420  -39.5840 C.2   307  ASN307      0.2627
     77  OD1      -79.1670  -50.7540  -40.1420 O.2   307  ASN307     -0.2716
     78  ND2      -77.6490  -52.3460  -40.2130 N.am  307  ASN307     -0.0877
     79  N        -80.9130  -52.3110  -37.1600 N.am  308  PRO308     -0.2718
     80  CA       -82.3020  -52.7490  -37.3560 C.3   308  PRO308      0.1535
     81  C        -82.7380  -53.0850  -38.7680 C.2   308  PRO308      0.2598
     82  O        -83.6950  -53.8650  -38.9270 O.2   308  PRO308     -0.2715
     83  CB       -83.1360  -51.5550  -36.8390 C.3   308  PRO308      0.0310
     84  CG       -82.2610  -50.9360  -35.8250 C.3   308  PRO308      0.0237
     85  CD       -80.8560  -51.0640  -36.3610 C.3   308  PRO308      0.0939
     86  N        -82.0940  -52.4840  -39.7760 N.am  309  CYS309     -0.1968
     87  CA       -82.4750  -52.7110  -41.1540 C.3   309  CYS309      0.1712
     88  C        -81.5540  -53.7150  -41.9240 C.2   309  CYS309      0.2296
     89  O        -81.8430  -54.0870  -43.0650 O.2   309  CYS309     -0.2864
     90  CB       -82.6180  -51.3780  -41.8400 C.3   309  CYS309      0.0983
     91  SG       -84.1110  -50.4030  -41.3070 S.3   309  CYS309     -0.0798
     92  N        -78.3650  -53.6370  -43.0610 N.3   311  GLU311     -0.1245
     93  CA       -77.4620  -53.3150  -44.1650 C.3   311  GLU311      0.1567
     94  C        -76.0130  -53.1530  -43.7220 C.2   311  GLU311      0.2260
     95  O        -75.0820  -53.3110  -44.5150 O.2   311  GLU311     -0.2867
     96  CB       -77.9930  -52.2170  -45.0810 C.3   311  GLU311      0.0388
     97  CG       -77.7990  -50.7590  -44.6120 C.3   311  GLU311      0.1160
     98  CD       -78.8510  -50.2600  -43.6540 C.2   311  GLU311      0.3649
     99  OE1      -79.5510  -51.0200  -42.9550 O.co2 311  GLU311     -0.2457
    100  OE2      -78.9990  -49.0530  -43.5980 O.co2 311  GLU311     -0.2457
    101  N        -74.2410  -43.2780  -42.8160 N.3   322  LEU322     -0.1245
    102  CA       -74.6540  -43.6110  -44.1560 C.3   322  LEU322      0.1561
    103  C        -74.9590  -42.3630  -44.9970 C.2   322  LEU322      0.2260
    104  O        -75.2950  -41.2920  -44.4640 O.2   322  LEU322     -0.2867
    105  CB       -75.8860  -44.5390  -44.1070 C.3   322  LEU322      0.0270
    106  CG       -76.0580  -45.6930  -43.1150 C.3   322  LEU322      0.0019
    107  CD1      -77.2000  -46.5740  -43.5900 C.3   322  LEU322      0.0001
    108  CD2      -74.8560  -46.5200  -42.8630 C.3   322  LEU322      0.0001
    109  N        -78.9480  -48.9200  -48.3430 N.3   476  ALA476     -0.1231
    110  CA       -79.8380  -48.7140  -47.2270 C.3   476  ALA476      0.1679
    111  C        -81.3150  -48.6980  -47.7090 C.2   476  ALA476      0.2434
    112  O        -81.5680  -48.6230  -48.9050 O.2   476  ALA476     -0.2733
    113  CB       -79.4660  -47.4240  -46.4980 C.3   476  ALA476      0.0304
    114  N        -82.2940  -48.8620  -46.8020 N.am  477  PRO477     -0.2718
    115  CA       -83.6730  -48.6850  -47.3200 C.3   477  PRO477      0.1535
    116  C        -83.9940  -47.2890  -47.9120 C.2   477  PRO477      0.2599
    117  O        -84.8380  -47.1860  -48.7880 O.2   477  PRO477     -0.2715
    118  CB       -84.5740  -48.9700  -46.0970 C.3   477  PRO477      0.0310
    119  CG       -83.6710  -49.1760  -44.9040 C.3   477  PRO477      0.0237
    120  CD       -82.2510  -49.2880  -45.3820 C.3   477  PRO477      0.0939
    121  N        -83.3230  -46.2480  -47.4230 N.am  478  THR478     -0.1937
    122  CA       -83.5500  -44.8340  -47.8130 C.3   478  THR478      0.2028
    123  C        -85.0190  -44.3770  -47.8910 C.2   478  THR478      0.2643
    124  O        -85.3440  -43.5700  -48.7280 O.2   478  THR478     -0.2714
    125  CB       -82.7950  -44.4360  -49.1260 C.3   478  THR478      0.1808
    126  OG1      -83.3880  -45.0830  -50.2500 O.3   478  THR478     -0.2208
    127  CG2      -81.3560  -44.8130  -49.0770 C.3   478  THR478      0.0379
    128  N        -85.8910  -44.8640  -47.0210 N.am  479  GLY479     -0.1939
    129  CA       -87.2820  -44.4370  -47.0210 C.3   479  GLY479      0.2014
    130  C        -87.5030  -42.9360  -47.0540 C.2   479  GLY479      0.2640
    131  O        -88.0170  -42.4140  -48.0400 O.2   479  GLY479     -0.2714
    132  N        -87.0860  -42.2280  -46.0080 N.am  480  SER480     -0.1935
    133  CA       -87.1960  -40.7710  -45.9790 C.3   480  SER480      0.2055
    134  C        -86.3410  -39.9900  -46.9770 C.2   480  SER480      0.2642
    135  O        -86.8470  -39.0800  -47.6140 O.2   480  SER480     -0.2714
    136  CB       -86.8660  -40.2380  -44.5880 C.3   480  SER480      0.2130
    137  OG       -87.5520  -40.9710  -43.6120 O.3   480  SER480     -0.2179
    138  N        -85.0440  -40.2910  -47.0640 N.am  481  ILE481     -0.1977
    139  CA       -84.1420  -39.4700  -47.8930 C.3   481  ILE481      0.1596
    140  C        -84.4610  -39.5790  -49.4110 C.2   481  ILE481      0.2287
    141  O        -84.2820  -38.6230  -50.1680 O.2   481  ILE481     -0.2864
    142  CB       -82.6200  -39.6320  -47.5350 C.3   481  ILE481      0.0276
    143  CG1      -82.0660  -41.0050  -47.8910 C.3   481  ILE481      0.0022
    144  CG2      -82.3590  -39.3180  -46.0430 C.3   481  ILE481      0.0022
    145  CD1      -80.5510  -41.1390  -47.6070 C.3   481  ILE481      0.0001
    146  N        -87.5590  -40.0080  -50.3850 N.3   483  ASN483     -0.1240
    147  CA       -88.6860  -39.0650  -50.4230 C.3   483  ASN483      0.1653
    148  C        -88.2600  -37.5990  -50.5620 C.2   483  ASN483      0.2266
    149  O        -88.7900  -36.8830  -51.4240 O.2   483  ASN483     -0.2867
    150  CB       -89.6510  -39.2630  -49.2610 C.3   483  ASN483      0.1155
    151  CG       -90.4600  -40.5360  -49.4160 C.2   483  ASN483      0.2627
    152  OD1      -90.3970  -41.1760  -50.4630 O.2   483  ASN483     -0.2716
    153  ND2      -91.1870  -40.9370  -48.3610 N.am  483  ASN483     -0.0877
@<TRIPOS>BOND
     1   149   148    2
     2   148   147    1
     3   152   151    2
     4   147   146    1
     5   147   150    1
     6   126   125    1
     7   141   140    2
     8   151   150    1
     9   151   153   am
    10   140   139    1
    11   125   127    1
    12   125   122    1
    13   112   111    2
    14   117   116    2
    15   124   123    2
    16   109   110    1
    17   131   130    2
    18   116   121   am
    19   116   115    1
    20   139   142    1
    21   139   138    1
    22   123   122    1
    23   123   128   am
    24   143   145    1
    25   143   142    1
    26   122   121    1
    27   111   110    1
    28   111   114   am
    29   135   134    2
    30   142   144    1
    31   115   114    1
    32   115   118    1
    33   110   113    1
    34   138   134   am
    35   130   129    1
    36   130   132   am
    37   129   128    1
    38   134   133    1
    39   114   120    1
    40   118   119    1
    41   132   133    1
    42   133   136    1
    43   120   119    1
    44    96    97    1
    45    96    93    1
    46   103   104    2
    47   103   102    1
    48    97    98    1
    49   136   137    1
    50    95    94    2
    51    24    25    1
    52    93    94    1
    53    93    92    1
    54   102   105    1
    55   102   101    1
    56   105   106    1
    57    98   100   ar
    58    98    99   ar
    59   107   106    1
    60    25    28    1
    61    25    26    1
    62   106   108    1
    63    89    88    2
    64    20    18   ar
    65    20    22   ar
    66    23    22    1
    67    18    17   ar
    68    22    21   ar
    69    28    29    1
    70    26    32   am
    71    26    27    2
    72    17    16    1
    73    17    19   ar
    74    21    19   ar
    75    16    13    1
    76    37    36    1
    77    32    33    1
    78    88    87    1
    79    90    91    1
    80    90    87    1
    81    29    31   am
    82    29    30    2
    83    10     9    1
    84    33    36    1
    85    33    34    1
    86    87    86    1
    87     7     8    1
    88     7     6    1
    89    13    14    1
    90    13    12    1
    91    14    15    2
    92     9     8    2
    93     9    11    1
    94    12     3   am
    95    78    76   am
    96    34    35    2
    97    34    38   am
    98     6     5    1
    99    77    76    2
   100    66    65    1
   101     1     2    1
   102    86    81   am
   103    76    75    1
   104    60    57    1
   105     3     2    1
   106     3     4    2
   107    38    44    1
   108    38    39    1
   109    44    43    1
   110    45    46    1
   111    53    55   ar
   112    53    51   ar
   113     2     5    1
   114    82    81    2
   115    55    54   ar
   116    81    80    1
   117    51    50   ar
   118    40    39    1
   119    40    41    2
   120    65    62    1
   121    74    73    2
   122    56    57    1
   123    39    42    1
   124    75    72    1
   125    57    58    1
   126    54    52   ar
   127    46    49    1
   128    46    47    1
   129    43    42    1
   130    50    52   ar
   131    50    49    1
   132    71    72    1
   133    73    72    1
   134    73    79   am
   135    61    58   am
   136    61    62    1
   137    80    79    1
   138    80    83    1
   139    58    59    2
   140    62    63    1
   141    79    85    1
   142    47    48    2
   143    83    84    1
   144    85    84    1
   145    63    64    2
   146    70    69    2
   147    67    68    1
   148    68    69    1
