@<TRIPOS>MOLECULE
tmp/1xjqA01.pdb
 201 198 0 0 0
SMALL
GASTEIGER

@<TRIPOS>ATOM
      1  N          9.7320   12.9390   30.7590 N.3   385  PHE385     -0.1227
      2  CA        10.2760   12.3070   29.5330 C.3   385  PHE385      0.1736
      3  C          9.7740   13.0580   28.3960 C.2   385  PHE385      0.2595
      4  O          8.5950   12.9510   28.1010 O.2   385  PHE385     -0.2718
      5  CB         9.8390   10.8140   29.3810 C.3   385  PHE385      0.0547
      6  CG        10.6790   10.0410   28.3530 C.ar  385  PHE385     -0.0202
      7  CD1       11.9810    9.7640   28.6210 C.ar  385  PHE385     -0.0042
      8  CD2       10.1660    9.7440   27.1020 C.ar  385  PHE385     -0.0042
      9  CE1       12.7920    9.0880   27.6560 C.ar  385  PHE385     -0.0003
     10  CE2       10.9330    9.0890   26.1110 C.ar  385  PHE385     -0.0003
     11  CZ        12.2240    8.7310   26.3830 C.ar  385  PHE385     -0.0000
     12  N         10.5850   13.9790   27.8390 N.am  386  GLN386     -0.1965
     13  CA        10.2500   14.6430   26.5990 C.3   386  GLN386      0.1733
     14  C         10.3650   13.6620   25.4760 C.2   386  GLN386      0.2616
     15  O         11.3500   12.8510   25.5920 O.2   386  GLN386     -0.2715
     16  CB        11.3180   15.7550   26.3300 C.3   386  GLN386      0.0408
     17  CG        11.7750   15.9340   24.8770 C.3   386  GLN386      0.0908
     18  CD        10.8330   16.5280   23.9500 C.2   386  GLN386      0.2608
     19  OE1        9.9680   17.3500   24.2890 O.2   386  GLN386     -0.2717
     20  NE2       11.0140   16.1650   22.6900 N.am  386  GLN386     -0.0878
     21  N          9.5350   13.8000   24.4270 N.am  387  LEU387     -0.1963
     22  CA         9.5990   12.9160   23.2650 C.3   387  LEU387      0.1728
     23  C          8.8880   13.4330   22.1510 C.2   387  LEU387      0.2616
     24  O          7.9530   14.2270   22.2740 O.2   387  LEU387     -0.2715
     25  CB         9.0840   11.5090   23.4910 C.3   387  LEU387      0.0311
     26  CG         8.0200   11.0030   24.4410 C.3   387  LEU387      0.0022
     27  CD1        6.9410   11.8790   24.6920 C.3   387  LEU387      0.0001
     28  CD2        7.5640    9.6920   23.9070 C.3   387  LEU387      0.0001
     29  N          9.2530   12.9370   20.9520 N.am  388  ARG388     -0.1963
     30  CA         8.4960   13.3800   19.8250 C.3   388  ARG388      0.1729
     31  C          8.1020   12.1740   18.8970 C.2   388  ARG388      0.2616
     32  O          7.6130   12.4010   17.8140 O.2   388  ARG388     -0.2715
     33  CB         9.3220   14.3860   19.0590 C.3   388  ARG388      0.0348
     34  CG        10.5210   13.6440   18.3620 C.3   388  ARG388      0.0492
     35  CD        11.5220   14.4870   17.6060 C.3   388  ARG388      0.2205
     36  NE        12.3140   13.8250   16.5320 N.pl3 388  ARG388     -0.0865
     37  CZ        13.6220   13.9490   16.3710 C.cat 388  ARG388      0.5346
     38  NH1       14.1480   13.4730   15.2630 N.pl3 388  ARG388      0.1354
     39  NH2       14.5130   14.3860   17.3610 N.pl3 388  ARG388      0.1354
     40  N          8.5070   10.9810   19.2800 N.am  389  ASN389     -0.1972
     41  CA         8.4060    9.7350   18.5530 C.3   389  ASN389      0.1688
     42  C          7.4910    8.7250   19.3140 C.2   389  ASN389      0.2292
     43  O          7.2430    8.9360   20.5190 O.2   389  ASN389     -0.2864
     44  CB         9.8080    9.1190   18.3990 C.3   389  ASN389      0.1181
     45  CG        10.5190    9.6600   17.1580 C.2   389  ASN389      0.2629
     46  OD1       11.6880   10.1200   17.2360 O.2   389  ASN389     -0.2716
     47  ND2        9.7460    9.8590   16.1020 N.am  389  ASN389     -0.0877
     48  N          8.7570    3.1270   22.1740 N.3   392  HIS392     -0.1241
     49  CA         9.2350    1.8240   22.0500 C.3   392  HIS392      0.1621
     50  C          9.9260    1.6020   23.3340 C.2   392  HIS392      0.2264
     51  O          9.9850    2.5210   24.1950 O.2   392  HIS392     -0.2867
     52  CB        10.1250    1.6030   20.8160 C.3   392  HIS392      0.0745
     53  CG        11.4130    2.3800   20.7450 C.ar  392  HIS392      0.0817
     54  ND1       12.2310    2.6220   21.8230 N.ar  392  HIS392     -0.2268
     55  CD2       12.0710    2.8870   19.6710 C.ar  392  HIS392      0.1154
     56  CE1       13.3170    3.2660   21.4270 C.ar  392  HIS392      0.1986
     57  NE2       13.2360    3.4530   20.1300 N.ar  392  HIS392     -0.2212
     58  N         12.7500    0.8350   24.2460 N.3   394  GLY394     -0.1210
     59  CA        14.0070    1.4990   24.5790 C.3   394  GLY394      0.1956
     60  C         13.7860    2.8100   25.3530 C.2   394  GLY394      0.2611
     61  O         14.4170    2.9930   26.3370 O.2   394  GLY394     -0.2717
     62  N         12.8790    3.6510   24.9090 N.am  395  HIS395     -0.1975
     63  CA        12.4060    4.7780   25.7130 C.3   395  HIS395      0.1656
     64  C         11.8210    4.3100   27.0600 C.2   395  HIS395      0.2291
     65  O         12.1470    4.8390   28.1360 O.2   395  HIS395     -0.2864
     66  CB        11.2510    5.4450   25.0170 C.3   395  HIS395      0.0771
     67  CG        11.5130    5.7330   23.5960 C.ar  395  HIS395      0.0820
     68  ND1       12.6700    6.3570   23.1660 N.ar  395  HIS395     -0.2267
     69  CD2       10.7810    5.4840   22.4920 C.ar  395  HIS395      0.1154
     70  CE1       12.6380    6.4690   21.8440 C.ar  395  HIS395      0.1986
     71  NE2       11.4940    5.9610   21.4140 N.ar  395  HIS395     -0.2212
     72  N         14.2300    3.6840   29.5650 N.3   398  LEU398     -0.1245
     73  CA        14.8530    4.7740   30.2830 C.3   398  LEU398      0.1561
     74  C         13.8320    5.2120   31.4040 C.2   398  LEU398      0.2260
     75  O         14.2840    5.5280   32.5100 O.2   398  LEU398     -0.2867
     76  CB        15.1610    5.8960   29.3260 C.3   398  LEU398      0.0270
     77  CG        16.4800    6.0700   28.5710 C.3   398  LEU398      0.0019
     78  CD1       17.0600    4.8950   28.0720 C.3   398  LEU398      0.0001
     79  CD2       16.1880    6.9930   27.3920 C.3   398  LEU398      0.0001
     80  N          8.7310   22.0200   17.7930 N.3   462  MET462     -0.1245
     81  CA         9.9300   21.2350   17.8000 C.3   462  MET462      0.1570
     82  C         10.8680   21.8780   16.8080 C.2   462  MET462      0.2261
     83  O         10.5380   22.1350   15.7090 O.2   462  MET462     -0.2867
     84  CB         9.7210   19.8780   17.2890 C.3   462  MET462      0.0387
     85  CG        10.9230   18.9110   17.4470 C.3   462  MET462      0.0595
     86  SD        11.4170   18.2970   19.0390 S.3   462  MET462     -0.1393
     87  CE        12.9660   17.6550   18.8830 C.3   462  MET462      0.0692
     88  N         13.6760   21.9730   26.2380 N.3   473  HIS473     -0.1241
     89  CA        12.8820   20.7960   26.6770 C.3   473  HIS473      0.1621
     90  C         12.9630   20.6140   28.2060 C.2   473  HIS473      0.2264
     91  O         11.9750   20.3420   28.8720 O.2   473  HIS473     -0.2867
     92  CB        13.3600   19.5130   25.9620 C.3   473  HIS473      0.0745
     93  CG        13.0070   19.5350   24.4890 C.ar  473  HIS473      0.0817
     94  ND1       12.1700   20.4770   24.0090 N.ar  473  HIS473     -0.2268
     95  CD2       13.3160   18.7600   23.4450 C.ar  473  HIS473      0.1154
     96  CE1       11.9750   20.3190   22.7070 C.ar  473  HIS473      0.1986
     97  NE2       12.6710   19.2910   22.3430 N.ar  473  HIS473     -0.2212
     98  N         14.9410   14.9060   35.0030 N.3   485  TYR485     -0.1227
     99  CA        14.8070   15.1070   33.5660 C.3   485  TYR485      0.1736
    100  C         15.6410   13.9900   32.9100 C.2   485  TYR485      0.2595
    101  O         16.8100   13.8670   33.0580 O.2   485  TYR485     -0.2718
    102  CB        15.2370   16.4730   33.0730 C.3   485  TYR485      0.0548
    103  CG        14.9740   16.6280   31.5900 C.ar  485  TYR485     -0.0200
    104  CD1       13.8120   17.0590   31.1520 C.ar  485  TYR485     -0.0009
    105  CD2       15.9370   16.2600   30.6290 C.ar  485  TYR485     -0.0009
    106  CE1       13.6040   17.2500   29.8510 C.ar  485  TYR485      0.0417
    107  CE2       15.6800   16.3910   29.2800 C.ar  485  TYR485      0.0417
    108  CZ        14.5490   16.8650   28.9210 C.ar  485  TYR485      0.1957
    109  OH        14.2680   16.9530   27.6050 O.3   485  TYR485     -0.2866
    110  N         14.9290   13.0860   32.3090 N.am  486  ILE486     -0.1966
    111  CA        15.5140   11.9570   31.5670 C.3   486  ILE486      0.1727
    112  C         15.9520   12.3560   30.1700 C.2   486  ILE486      0.2616
    113  O         15.1880   12.9430   29.4250 O.2   486  ILE486     -0.2715
    114  CB        14.4410   10.8480   31.4240 C.3   486  ILE486      0.0290
    115  CG1       14.2150   10.3030   32.7660 C.3   486  ILE486      0.0022
    116  CG2       14.8480    9.7060   30.4480 C.3   486  ILE486      0.0023
    117  CD1       12.7580    9.9540   32.8120 C.3   486  ILE486      0.0001
    118  N         17.1950   12.0440   29.8980 N.am  487  VAL487     -0.1963
    119  CA        17.8390   12.3760   28.6240 C.3   487  VAL487      0.1727
    120  C         18.6910   11.1970   28.1150 C.2   487  VAL487      0.2617
    121  O         19.4150   10.5800   28.8550 O.2   487  VAL487     -0.2715
    122  CB        18.7070   13.6430   28.7070 C.3   487  VAL487      0.0290
    123  CG1       19.7970   13.4510   29.5140 C.3   487  VAL487      0.0023
    124  CG2       19.2250   14.1140   27.3600 C.3   487  VAL487      0.0023
    125  N         18.5340   10.8370   26.8570 N.am  488  GLY488     -0.1940
    126  CA        19.3660    9.7670   26.3220 C.3   488  GLY488      0.2014
    127  C         20.3540   10.2950   25.2790 C.2   488  GLY488      0.2639
    128  O         20.9020   11.4330   25.3960 O.2   488  GLY488     -0.2714
    129  N         20.5000    9.5240   24.1930 N.am  489  ARG489     -0.1963
    130  CA        21.3920    9.8660   23.0790 C.3   489  ARG489      0.1729
    131  C         20.7960   10.7700   22.0850 C.2   489  ARG489      0.2616
    132  O         19.6080   10.6880   21.7610 O.2   489  ARG489     -0.2715
    133  CB        21.8190    8.6490   22.3230 C.3   489  ARG489      0.0348
    134  CG        20.6350    7.7690   21.8450 C.3   489  ARG489      0.0492
    135  CD        20.3820    7.7000   20.2620 C.3   489  ARG489      0.2205
    136  NE        19.2800    8.6380   20.0430 N.pl3 489  ARG489     -0.0865
    137  CZ        18.2430    8.3950   19.3240 C.cat 489  ARG489      0.5346
    138  NH1       17.2900    9.3180   19.2350 N.pl3 489  ARG489      0.1354
    139  NH2       18.1680    7.2700   18.6670 N.pl3 489  ARG489      0.1354
    140  N         21.6330   11.7200   21.6170 N.am  490  ASP490     -0.1958
    141  CA        21.2050   12.6630   20.5390 C.3   490  ASP490      0.1825
    142  C         19.8240   13.2900   20.7330 C.2   490  ASP490      0.2464
    143  O         19.0050   13.2750   19.8100 O.2   490  ASP490     -0.2730
    144  CB        21.2860   11.9000   19.1490 C.3   490  ASP490      0.1450
    145  CG        21.1890   12.7970   18.0030 C.2   490  ASP490      0.3671
    146  OD1       20.4920   12.4880   17.0250 O.co2 490  ASP490     -0.2456
    147  OD2       21.6820   13.9660   18.0260 O.co2 490  ASP490     -0.2456
    148  N         19.5440   13.8720   21.8890 N.am  491  PRO491     -0.2715
    149  CA        18.2250   14.4440   22.1010 C.3   491  PRO491      0.1536
    150  C         17.9930   15.5980   21.2020 C.2   491  PRO491      0.2598
    151  O         18.9440   16.3250   20.9930 O.2   491  PRO491     -0.2715
    152  CB        18.2320   14.8680   23.5930 C.3   491  PRO491      0.0310
    153  CG        19.6540   15.1670   23.8620 C.3   491  PRO491      0.0237
    154  CD        20.4570   14.0630   23.0500 C.3   491  PRO491      0.0939
    155  N         16.8340   15.7020   20.5910 N.am  492  ALA492     -0.1978
    156  CA        16.5030   16.8510   19.8100 C.3   492  ALA492      0.1597
    157  C         17.3420   16.8870   18.5300 C.2   492  ALA492      0.2287
    158  O         17.2490   17.8700   17.8010 O.2   492  ALA492     -0.2864
    159  CB        16.6740   18.1630   20.6030 C.3   492  ALA492      0.0319
    160  N         22.8440    6.0500   28.2380 N.3   528  ARG528     -0.1231
    161  CA        23.4550    5.5080   27.0210 C.3   528  ARG528      0.1694
    162  C         22.3910    5.0370   26.0300 C.2   528  ARG528      0.2592
    163  O         21.2040    4.8250   26.3830 O.2   528  ARG528     -0.2718
    164  CB        24.2490    4.2530   27.3800 C.3   528  ARG528      0.0321
    165  CG        25.6610    4.3980   27.9400 C.3   528  ARG528      0.0489
    166  CD        26.2130    2.9960   28.4440 C.3   528  ARG528      0.2205
    167  NE        25.5390    2.5700   29.6870 N.pl3 528  ARG528     -0.0865
    168  CZ        25.1170    1.3250   29.9690 C.cat 528  ARG528      0.5346
    169  NH1       25.2930    0.3150   29.1060 N.pl3 528  ARG528      0.1354
    170  NH2       24.5030    1.0850   31.1350 N.pl3 528  ARG528      0.1354
    171  N         22.8220    4.7600   24.7960 N.am  529  VAL529     -0.1966
    172  CA        21.8450    4.3550   23.7460 C.3   529  VAL529      0.1727
    173  C         21.3220    2.9750   24.0680 C.2   529  VAL529      0.2616
    174  O         22.0620    2.1730   24.5080 O.2   529  VAL529     -0.2715
    175  CB        22.4120    4.4840   22.2790 C.3   529  VAL529      0.0290
    176  CG1       23.9100    4.2700   22.1960 C.3   529  VAL529      0.0023
    177  CG2       21.7590    3.5050   21.3750 C.3   529  VAL529      0.0023
    178  N         20.0200    2.7650   23.9570 N.am  530  ALA530     -0.1977
    179  CA        19.3750    1.4840   24.1390 C.3   530  ALA530      0.1597
    180  C         18.9730    0.9480   22.7530 C.2   530  ALA530      0.2287
    181  O         18.6490    1.6990   21.8940 O.2   530  ALA530     -0.2864
    182  CB        18.1290    1.6000   24.9560 C.3   530  ALA530      0.0319
    183  N         14.7100   -4.9370   24.8020 N.3   539  MET539     -0.1245
    184  CA        15.5070   -3.6920   24.6660 C.3   539  MET539      0.1570
    185  C         16.5000   -3.6540   25.8090 C.2   539  MET539      0.2261
    186  O         16.1970   -4.0670   26.9130 O.2   539  MET539     -0.2867
    187  CB        14.6190   -2.4990   24.7660 C.3   539  MET539      0.0387
    188  CG        13.7560   -2.1850   23.5570 C.3   539  MET539      0.0595
    189  SD        14.3930   -2.4320   21.9030 S.3   539  MET539     -0.1393
    190  CE        14.9550   -0.6980   21.5300 C.3   539  MET539      0.0692
    191  N         19.0890   -2.2340   15.4300 N.3   552  PHE552     -0.1241
    192  CA        18.6710   -0.8550   15.4800 C.3   552  PHE552      0.1605
    193  C         17.5000   -0.7030   14.5450 C.2   552  PHE552      0.2264
    194  O         17.5860   -1.0400   13.3600 O.2   552  PHE552     -0.2867
    195  CB        19.8160    0.0210   15.0500 C.3   552  PHE552      0.0534
    196  CG        20.7960    0.3200   16.1590 C.ar  552  PHE552     -0.0203
    197  CD1       20.5950    1.4230   17.0300 C.ar  552  PHE552     -0.0042
    198  CD2       21.9210   -0.4770   16.3380 C.ar  552  PHE552     -0.0042
    199  CE1       21.5340    1.7200   18.0410 C.ar  552  PHE552     -0.0003
    200  CE2       22.8630   -0.1910   17.3490 C.ar  552  PHE552     -0.0003
    201  CZ        22.6680    0.9070   18.2100 C.ar  552  PHE552     -0.0000
@<TRIPOS>BOND
     1   194   193    2
     2   193   192    1
     3   195   192    1
     4   195   196    1
     5    38    37    1
     6   191   192    1
     7    83    82    2
     8    47    45   am
     9   196   198   ar
    10   196   197   ar
    11   198   200   ar
    12    37    36    2
    13    37    39    1
    14    36    35    1
    15    82    81    1
    16   146   145   ar
    17   197   199   ar
    18    45    46    2
    19    45    44    1
    20    84    85    1
    21    84    81    1
    22   200   201   ar
    23    85    86    1
    24    35    34    1
    25    80    81    1
    26   158   157    2
    27    32    31    2
    28   145   147   ar
    29   145   144    1
    30   199   201   ar
    31    34    33    1
    32    44    41    1
    33   157   156    1
    34    41    40    1
    35    41    42    1
    36   139   137    1
    37    87    86    1
    38    31    40   am
    39    31    30    1
    40    33    30    1
    41   144   141    1
    42   138   137    1
    43    42    43    2
    44   137   136    2
    45    55    57   ar
    46    55    53   ar
    47   156   155    1
    48   156   159    1
    49   143   142    2
    50    30    29    1
    51   136   135    1
    52    57    56   ar
    53   135   134    1
    54   141   142    1
    55   141   140    1
    56   155   150   am
    57   142   148   am
    58    53    52    1
    59    53    54   ar
    60    52    49    1
    61    29    23   am
    62   151   150    2
    63   150   149    1
    64   177   175    1
    65    71    70   ar
    66    71    69   ar
    67    56    54   ar
    68   190   189    1
    69   140   131   am
    70   132   131    2
    71    70    68   ar
    72   134   133    1
    73   148   149    1
    74   148   154    1
    75   181   180    2
    76   189   188    1
    77    49    48    1
    78    49    50    1
    79   131   130    1
    80   149   152    1
    81    23    24    2
    82    23    22    1
    83   176   175    1
    84   175   172    1
    85   133   130    1
    86    97    96   ar
    87    97    95   ar
    88    69    67   ar
    89    20    18   am
    90    96    94   ar
    91   180   179    1
    92   154   153    1
    93   130   129    1
    94    68    67   ar
    95    22    25    1
    96    22    21    1
    97    50    51    2
    98    95    93   ar
    99    25    26    1
   100   188   187    1
   101   152   153    1
   102    67    66    1
   103   172   173    1
   104   172   171    1
   105    28    26    1
   106    18    19    2
   107    18    17    1
   108   178   173   am
   109   178   179    1
   110    94    93   ar
   111   173   174    2
   112   179   182    1
   113   129   127   am
   114    58    59    1
   115    21    14   am
   116    26    27    1
   117    93    92    1
   118    59    60    1
   119   184   187    1
   120   184   183    1
   121   184   185    1
   122   171   162   am
   123    17    16    1
   124    62    60   am
   125    62    63    1
   126    66    63    1
   127   127   128    2
   128   127   126    1
   129    60    61    2
   130    14    15    2
   131    14    13    1
   132    63    64    1
   133   185   186    2
   134    92    89    1
   135   162   163    2
   136   162   161    1
   137    10    11   ar
   138    10     8   ar
   139    88    89    1
   140   126   125    1
   141    16    13    1
   142    11     9   ar
   143    13    12    1
   144    89    90    1
   145   125   120   am
   146   161   164    1
   147   161   160    1
   148    64    65    2
   149     8     6   ar
   150   124   122    1
   151   164   165    1
   152    79    77    1
   153   109   108    1
   154     9     7   ar
   155    12     3   am
   156   165   166    1
   157    78    77    1
   158     4     3    2
   159   120   119    1
   160   120   121    2
   161    90    91    2
   162     6     7   ar
   163     6     5    1
   164     3     2    1
   165   166   167    1
   166    77    76    1
   167   119   122    1
   168   119   118    1
   169   122   123    1
   170   108   107   ar
   171   108   106   ar
   172   169   168    1
   173   107   105   ar
   174    76    73    1
   175     5     2    1
   176   113   112    2
   177     2     1    1
   178    72    73    1
   179   167   168    2
   180   106   104   ar
   181   118   112   am
   182   168   170    1
   183   112   111    1
   184    73    74    1
   185   116   114    1
   186   105   103   ar
   187   104   103   ar
   188    74    75    2
   189   114   111    1
   190   114   115    1
   191   111   110    1
   192   103   102    1
   193   110   100   am
   194   115   117    1
   195   100   101    2
   196   100    99    1
   197   102    99    1
   198    99    98    1
