@<TRIPOS>MOLECULE
tmp/1xjqA00.pdb
 116 109 0 0 0
SMALL
GASTEIGER

@<TRIPOS>ATOM
      1  N          9.7290   43.2100   75.5880 N.3    28  SER28      -0.1202
      2  CA        10.8440   42.3150   75.8910 C.3    28  SER28       0.2020
      3  C         10.2940   40.9810   75.5720 C.2    28  SER28       0.2619
      4  O          9.1310   40.7090   75.9790 O.2    28  SER28      -0.2717
      5  CB        11.1510   42.3140   77.3690 C.3    28  SER28       0.2103
      6  OG        12.4770   41.9260   77.5330 O.3    28  SER28      -0.2182
      7  N         11.0310   40.2230   74.7690 N.am   29  GLY29      -0.1942
      8  CA        10.6350   38.8540   74.4220 C.3    29  GLY29       0.2014
      9  C          9.6090   38.6850   73.2570 C.2    29  GLY29       0.2639
     10  O          9.1470   37.5600   72.9580 O.2    29  GLY29      -0.2714
     11  N          9.2670   39.7650   72.5540 N.am   30  ALA30      -0.1963
     12  CA         8.2270   39.7000   71.5130 C.3    30  ALA30       0.1728
     13  C          8.8020   39.0500   70.2310 C.2    30  ALA30       0.2617
     14  O          8.0970   38.4500   69.4020 O.2    30  ALA30      -0.2715
     15  CB         7.7150   41.1150   71.2090 C.3    30  ALA30       0.0334
     16  N         10.0810   39.1600   70.0430 N.am   31  GLY31      -0.1940
     17  CA        10.6720   38.5610   68.8480 C.3    31  GLY31       0.2014
     18  C         11.7550   39.3190   68.0850 C.2    31  GLY31       0.2639
     19  O         12.1950   38.8910   67.0240 O.2    31  GLY31      -0.2714
     20  N         12.1660   40.4630   68.6100 N.am   32  LYS32      -0.1963
     21  CA        13.0920   41.4230   67.9200 C.3    32  LYS32       0.1728
     22  C         14.4240   40.8300   67.6270 C.2    32  LYS32       0.2617
     23  O         14.8550   40.8450   66.4980 O.2    32  LYS32      -0.2715
     24  CB        13.2960   42.6950   68.7700 C.3    32  LYS32       0.0311
     25  CG        11.9260   43.4760   68.9500 C.3    32  LYS32       0.0038
     26  CD        12.1490   44.7460   69.8800 C.3    32  LYS32       0.0206
     27  CE        12.8100   44.3700   71.2120 C.3    32  LYS32       0.1093
     28  NZ        11.8710   43.6160   72.1570 N.3    32  LYS32      -0.1314
     29  N         15.0830   40.2850   68.6450 N.am   33  THR33      -0.1937
     30  CA        16.3720   39.6350   68.4130 C.3    33  THR33       0.2028
     31  C         16.2800   38.5770   67.3280 C.2    33  THR33       0.2643
     32  O         17.1110   38.5150   66.3740 O.2    33  THR33      -0.2714
     33  CB        16.9150   38.9660   69.7570 C.3    33  THR33       0.1808
     34  OG1       17.0500   39.9660   70.7980 O.3    33  THR33      -0.2208
     35  CG2       18.3230   38.3870   69.5790 C.3    33  THR33       0.0379
     36  N         15.2860   37.7230   67.4690 N.am   34  THR34      -0.1936
     37  CA        15.1280   36.5370   66.6210 C.3    34  THR34       0.2028
     38  C         14.8340   37.0570   65.1360 C.2    34  THR34       0.2642
     39  O         15.3450   36.5450   64.1320 O.2    34  THR34      -0.2714
     40  CB        13.9620   35.8200   67.0990 C.3    34  THR34       0.1808
     41  OG1       14.1200   35.4150   68.4670 O.3    34  THR34      -0.2208
     42  CG2       13.7030   34.5140   66.3070 C.3    34  THR34       0.0379
     43  N         13.9480   38.0280   65.0090 N.am   35  VAL35      -0.1977
     44  CA        13.6850   38.5980   63.6720 C.3    35  VAL35       0.1596
     45  C         14.8950   39.2410   63.1590 C.2    35  VAL35       0.2287
     46  O         15.1850   39.0140   61.9940 O.2    35  VAL35      -0.2864
     47  CB        12.4770   39.5360   63.6250 C.3    35  VAL35       0.0276
     48  CG1       12.3990   40.2240   62.2550 C.3    35  VAL35       0.0022
     49  CG2       11.2310   38.7420   63.8870 C.3    35  VAL35       0.0022
     50  N         17.3510   46.7800   67.0320 N.3    97  SER97      -0.1217
     51  CA        16.6600   45.7930   67.8230 C.3    97  SER97       0.1889
     52  C         16.4080   46.1870   69.2970 C.2    97  SER97       0.2288
     53  O         16.9810   45.6230   70.1280 O.2    97  SER97      -0.2866
     54  CB        17.4790   44.4720   67.7720 C.3    97  SER97       0.2089
     55  OG        16.4880   43.5480   68.1950 O.3    97  SER97      -0.2183
     56  N          7.0800   33.3310   77.5430 N.3   135  ARG135     -0.1245
     57  CA         8.3660   32.9610   76.9620 C.3   135  ARG135      0.1563
     58  C          9.5290   33.2150   77.8990 C.2   135  ARG135      0.2260
     59  O         10.5190   32.4570   77.8890 O.2   135  ARG135     -0.2867
     60  CB         8.6530   33.7400   75.6850 C.3   135  ARG135      0.0307
     61  CG         7.7080   33.4970   74.5730 C.3   135  ARG135      0.0489
     62  CD         7.7360   34.6510   73.5000 C.3   135  ARG135      0.2205
     63  NE         6.8880   34.3850   72.3410 N.pl3 135  ARG135     -0.0865
     64  CZ         6.7610   35.1900   71.2850 C.cat 135  ARG135      0.5346
     65  NH1        7.4600   36.3170   71.2250 N.pl3 135  ARG135      0.1354
     66  NH2        5.9670   34.8450   70.2760 N.pl3 135  ARG135      0.1354
     67  N         12.2790   34.5790   77.9300 N.3   137  VAL137     -0.1231
     68  CA        13.5270   34.1650   77.3070 C.3   137  VAL137      0.1692
     69  C         14.8290   34.3820   78.1050 C.2   137  VAL137      0.2591
     70  O         15.8000   33.6380   77.9420 O.2   137  VAL137     -0.2718
     71  CB        13.6510   34.8980   75.8680 C.3   137  VAL137      0.0266
     72  CG1       14.9550   34.5240   75.1220 C.3   137  VAL137      0.0020
     73  CG2       12.4890   34.4990   75.0090 C.3   137  VAL137      0.0020
     74  N         14.9000   35.4290   78.9020 N.am  138  LYS138     -0.1980
     75  CA        16.1240   35.6620   79.6320 C.3   138  LYS138      0.1596
     76  C         15.8210   35.7430   81.1270 C.2   138  LYS138      0.2287
     77  O         16.6550   36.1430   81.8920 O.2   138  LYS138     -0.2864
     78  CB        16.8120   36.9330   79.1210 C.3   138  LYS138      0.0298
     79  CG        17.3480   36.8560   77.6930 C.3   138  LYS138      0.0038
     80  CD        18.2840   38.0730   77.4000 C.3   138  LYS138      0.0206
     81  CE        17.4910   39.3840   77.1490 C.3   138  LYS138      0.1093
     82  NZ        18.2610   40.7170   77.2950 N.3   138  LYS138     -0.1314
     83  N          3.8540   37.8100   66.2210 N.3   171  THR171     -0.1218
     84  CA         4.6680   36.6460   66.4660 C.3   171  THR171      0.1862
     85  C          4.0280   35.4960   67.2510 C.2   171  THR171      0.2287
     86  O          4.6600   34.4630   67.3640 O.2   171  THR171     -0.2866
     87  CB         5.9920   37.0190   67.1070 C.3   171  THR171      0.1770
     88  OG1        5.7550   37.6820   68.3770 O.3   171  THR171     -0.2211
     89  CG2        6.7240   38.0060   66.2020 C.3   171  THR171      0.0375
     90  N          2.3940   33.4600   63.9890 N.3   174  CYS174     -0.1221
     91  CA         3.1380   33.2820   62.7880 C.3   174  CYS174      0.1808
     92  C          4.4900   32.7630   63.2010 C.2   174  CYS174      0.2601
     93  O          4.8950   32.8820   64.3560 O.2   174  CYS174     -0.2717
     94  CB         3.2410   34.6280   61.9850 C.3   174  CYS174      0.0970
     95  SG         4.5810   35.6230   62.5890 S.3   174  CYS174     -0.0800
     96  N          5.2490   32.2250   62.2560 N.am  175  ASP175     -0.1959
     97  CA         6.5990   31.7740   62.5930 C.3   175  ASP175      0.1840
     98  C          7.7380   32.6960   62.1420 C.2   175  ASP175      0.2621
     99  O          7.5280   33.7800   61.6380 O.2   175  ASP175     -0.2715
    100  CB         6.7820   30.2950   62.1720 C.3   175  ASP175      0.1450
    101  CG         6.7440   30.0750   60.6360 C.2   175  ASP175      0.3671
    102  OD1        6.5980   28.8850   60.1620 O.co2 175  ASP175     -0.2456
    103  OD2        6.8730   31.0410   59.8420 O.co2 175  ASP175     -0.2456
    104  N          8.9610   32.2870   62.3990 N.am  176  VAL176     -0.1977
    105  CA        10.0470   33.1340   62.0640 C.3   176  VAL176      0.1596
    106  C         10.0830   33.3480   60.5440 C.2   176  VAL176      0.2287
    107  O         10.3300   34.4780   60.1050 O.2   176  VAL176     -0.2864
    108  CB        11.3590   32.6110   62.6010 C.3   176  VAL176      0.0276
    109  CG1       12.4790   33.5260   62.1720 C.3   176  VAL176      0.0022
    110  CG2       11.3250   32.5660   64.1480 C.3   176  VAL176      0.0022
    111  N          7.6970   36.0560   59.6420 N.3   179  CYS179     -0.1235
    112  CA         8.3000   37.3080   59.9420 C.3   179  CYS179      0.1677
    113  C          9.2480   37.7530   58.9050 C.2   179  CYS179      0.2270
    114  O          9.2450   38.9610   58.5100 O.2   179  CYS179     -0.2867
    115  CB         9.0180   37.2810   61.2860 C.3   179  CYS179      0.0956
    116  SG         7.7980   37.2200   62.6370 S.3   179  CYS179     -0.0801
@<TRIPOS>BOND
     1   114   113    2
     2   113   112    1
     3   111   112    1
     4   103   101   ar
     5   112   115    1
     6   107   106    2
     7   102   101   ar
     8   106   105    1
     9   101   100    1
    10   115   116    1
    11    99    98    2
    12    94    95    1
    13    94    91    1
    14    46    45    2
    15   105   104    1
    16   105   108    1
    17    98   104   am
    18    98    97    1
    19   100    97    1
    20   109   108    1
    21    48    47    1
    22    96    97    1
    23    96    92   am
    24   108   110    1
    25    91    92    1
    26    91    90    1
    27    45    44    1
    28    92    93    2
    29    47    44    1
    30    47    49    1
    31    44    43    1
    32    39    38    2
    33    43    38   am
    34    38    37    1
    35    89    87    1
    36    83    84    1
    37    42    40    1
    38    32    31    2
    39    84    87    1
    40    84    85    1
    41    23    22    2
    42    37    40    1
    43    37    36    1
    44    19    18    2
    45    50    51    1
    46    40    41    1
    47    87    88    1
    48    85    86    2
    49    31    36   am
    50    31    30    1
    51    22    21    1
    52    22    29   am
    53    54    51    1
    54    54    55    1
    55    51    52    1
    56    21    20    1
    57    21    24    1
    58    18    20   am
    59    18    17    1
    60    30    29    1
    61    30    33    1
    62    24    25    1
    63    17    16    1
    64    25    26    1
    65    52    53    2
    66    14    13    2
    67    35    33    1
    68    33    34    1
    69    26    27    1
    70    16    13   am
    71    13    12    1
    72    66    64    1
    73    15    12    1
    74    27    28    1
    75    65    64    1
    76    64    63    2
    77    12    11    1
    78    63    62    1
    79    11     9   am
    80    10     9    2
    81     9     8    1
    82    62    61    1
    83     8     7    1
    84    61    60    1
    85     7     3   am
    86    73    71    1
    87    72    71    1
    88     3     2    1
    89     3     4    2
    90     1     2    1
    91    60    57    1
    92    71    68    1
    93     2     5    1
    94    57    56    1
    95    57    58    1
    96    81    82    1
    97    81    80    1
    98    68    67    1
    99    68    69    1
   100     5     6    1
   101    80    79    1
   102    79    78    1
   103    59    58    2
   104    70    69    2
   105    69    74   am
   106    74    75    1
   107    78    75    1
   108    75    76    1
   109    76    77    2
