@<TRIPOS>MOLECULE
tmp/1xk5A00.pdb
 138 132 0 0 0
SMALL
GASTEIGER

@<TRIPOS>ATOM
      1  N         20.2870   42.2230   11.2830 N.3     8  LEU8       -0.1231
      2  CA        19.3050   41.2310   11.6930 C.3     8  LEU8        0.1693
      3  C         18.8880   41.2880   13.1500 C.2     8  LEU8        0.2593
      4  O         19.7000   41.5620   14.0400 O.2     8  LEU8       -0.2718
      5  CB        19.8360   39.8330   11.3610 C.3     8  LEU8        0.0284
      6  CG        19.5860   39.2730    9.9580 C.3     8  LEU8        0.0019
      7  CD1       19.6840   40.3670    8.9000 C.3     8  LEU8        0.0001
      8  CD2       20.6010   38.1710    9.6930 C.3     8  LEU8        0.0001
      9  N         17.6150   40.9920   13.3860 N.am    9  SER9       -0.1938
     10  CA        17.0510   41.0150   14.7280 C.3     9  SER9        0.2055
     11  C         17.2030   39.7040   15.4790 C.2     9  SER9        0.2643
     12  O         17.6970   38.7110   14.9470 O.2     9  SER9       -0.2714
     13  CB        15.5720   41.3560   14.6570 C.3     9  SER9        0.2130
     14  OG        14.8830   40.3540   13.9380 O.3     9  SER9       -0.2179
     15  N         16.7560   39.7150   16.7270 N.am   10  GLU10      -0.1963
     16  CA        16.8020   38.5410   17.5900 C.3    10  GLU10       0.1733
     17  C         15.4430   38.4940   18.2580 C.2    10  GLU10       0.2616
     18  O         14.7340   39.5050   18.2880 O.2    10  GLU10      -0.2715
     19  CB        17.8730   38.7090   18.6670 C.3    10  GLU10       0.0429
     20  CG        19.2330   39.0750   18.1300 C.3    10  GLU10       0.1163
     21  CD        19.9480   37.8930   17.5180 C.2    10  GLU10       0.3649
     22  OE1       19.2580   37.0160   16.9460 O.co2  10  GLU10      -0.2457
     23  OE2       21.2010   37.8470   17.5990 O.co2  10  GLU10      -0.2457
     24  N         15.0580   37.3320   18.7750 N.am   11  TRP11      -0.1974
     25  CA        13.7830   37.2620   19.4710 C.3    11  TRP11       0.1640
     26  C         13.9090   38.1910   20.6770 C.2    11  TRP11       0.2290
     27  O         14.9480   38.2340   21.3330 O.2    11  TRP11      -0.2864
     28  CB        13.4900   35.8440   19.9540 C.3    11  TRP11       0.0576
     29  CG        13.0790   34.9170   18.8750 C.ar   11  TRP11       0.0006
     30  CD1       13.8790   34.0590   18.1720 C.ar   11  TRP11       0.0946
     31  CD2       11.7690   34.7910   18.3210 C.ar   11  TRP11       0.0152
     32  NE1       13.1430   33.4070   17.2100 N.ar   11  TRP11      -0.2442
     33  CE2       11.8450   33.8400   17.2790 C.ar   11  TRP11       0.0810
     34  CE3       10.5370   35.3920   18.6000 C.ar   11  TRP11       0.0012
     35  CZ2       10.7300   33.4760   16.5130 C.ar   11  TRP11       0.0191
     36  CZ3        9.4310   35.0320   17.8380 C.ar   11  TRP11       0.0001
     37  CH2        9.5360   34.0820   16.8080 C.ar   11  TRP11       0.0015
     38  N          5.9800   44.6540   10.4880 N.3    28  CYS28      -0.1235
     39  CA         6.4850   44.1800    9.2130 C.3    28  CYS28       0.1677
     40  C          5.5340   43.3390    8.4230 C.2    28  CYS28       0.2270
     41  O          4.8360   42.4900    8.9680 O.2    28  CYS28      -0.2867
     42  CB         7.7800   43.3970    9.4160 C.3    28  CYS28       0.0956
     43  SG         9.0350   44.3930   10.2090 S.3    28  CYS28      -0.0801
     44  N          6.6770   38.6740    3.7020 N.3    31  GLY31      -0.1210
     45  CA         7.4030   38.8670    2.4600 C.3    31  GLY31       0.1956
     46  C          8.8350   38.4050    2.5480 C.2    31  GLY31       0.2612
     47  O          9.2060   37.7190    3.4960 O.2    31  GLY31      -0.2717
     48  N          9.6500   38.7850    1.5690 N.am   32  LYS32      -0.1965
     49  CA        11.0490   38.3830    1.5500 C.3    32  LYS32       0.1728
     50  C         12.0230   39.5320    1.8230 C.2    32  LYS32       0.2616
     51  O         11.9740   40.5710    1.1630 O.2    32  LYS32      -0.2715
     52  CB        11.3820   37.7320    0.2000 C.3    32  LYS32       0.0311
     53  CG        10.6700   36.4180   -0.0460 C.3    32  LYS32       0.0038
     54  CD        11.1410   35.3320    0.9180 C.3    32  LYS32       0.0206
     55  CE        10.4450   33.9900    0.6660 C.3    32  LYS32       0.1093
     56  NZ        10.9140   32.9210    1.6070 N.3    32  LYS32      -0.1314
     57  N         12.9140   39.3320    2.7900 N.am   33  ARG33      -0.1977
     58  CA        13.9050   40.3430    3.1370 C.3    33  ARG33       0.1597
     59  C         14.7700   40.6310    1.9070 C.2    33  ARG33       0.2287
     60  O         15.1770   39.7110    1.2050 O.2    33  ARG33      -0.2864
     61  CB        14.8070   39.8340    4.2640 C.3    33  ARG33       0.0334
     62  CG        14.8280   40.6700    5.5460 C.3    33  ARG33       0.0492
     63  CD        14.7770   42.1880    5.3160 C.3    33  ARG33       0.2205
     64  NE        15.6930   42.9580    6.1690 N.pl3  33  ARG33      -0.0865
     65  CZ        15.9440   42.7260    7.4590 C.cat  33  ARG33       0.5346
     66  NH1       16.7970   43.5130    8.1100 N.pl3  33  ARG33       0.1354
     67  NH2       15.3700   41.7100    8.1030 N.pl3  33  ARG33       0.1354
     68  N         19.3340   38.8750   -2.0720 N.3    47  THR47      -0.1203
     69  CA        18.7710   38.1080   -0.9810 C.3    47  THR47       0.1994
     70  C         19.6190   38.4000    0.2450 C.2    47  THR47       0.2617
     71  O         20.6790   39.0410    0.1610 O.2    47  THR47      -0.2717
     72  CB        18.8260   36.5900   -1.2480 C.3    47  THR47       0.1784
     73  OG1       20.1870   36.2020   -1.4910 O.3    47  THR47      -0.2211
     74  CG2       17.9550   36.2170   -2.4430 C.3    47  THR47       0.0376
     75  N         19.1340   37.9290    1.3840 N.am   48  LYS48      -0.1979
     76  CA        19.8410   38.0910    2.6390 C.3    48  LYS48       0.1596
     77  C         21.1400   37.2970    2.4500 C.2    48  LYS48       0.2287
     78  O         22.2040   37.6750    2.9470 O.2    48  LYS48      -0.2864
     79  CB        18.9900   37.4960    3.7700 C.3    48  LYS48       0.0298
     80  CG        19.3510   37.9600    5.1600 C.3    48  LYS48       0.0038
     81  CD        18.4150   37.3550    6.1930 C.3    48  LYS48       0.0206
     82  CE        18.5210   35.8360    6.1980 C.3    48  LYS48       0.1093
     83  NZ        17.7290   35.2190    7.2960 N.3    48  LYS48      -0.1314
     84  N         11.5690   44.7150    2.5700 N.3    79  ILE79      -0.1245
     85  CA        10.8850   43.4330    2.6390 C.3    79  ILE79       0.1561
     86  C          9.9680   43.4560    1.4130 C.2    79  ILE79       0.2260
     87  O          9.0930   44.3160    1.2940 O.2    79  ILE79      -0.2867
     88  CB        10.0310   43.2800    3.9150 C.3    79  ILE79       0.0252
     89  CG1       10.9440   43.1270    5.1380 C.3    79  ILE79       0.0019
     90  CG2        9.0960   42.0540    3.7710 C.3    79  ILE79       0.0019
     91  CD1       10.2150   43.2910    6.4550 C.3    79  ILE79       0.0001
     92  N          3.4660   40.2590    9.4390 N.3   159  ASP159     -0.1239
     93  CA         4.2800   39.0960    9.7820 C.3   159  ASP159      0.1674
     94  C          4.7260   39.2110   11.2390 C.2   159  ASP159      0.2266
     95  O          4.5980   38.2620   12.0260 O.2   159  ASP159     -0.2867
     96  CB         5.5240   39.0030    8.8870 C.3   159  ASP159      0.1410
     97  CG         6.4170   37.8160    9.2540 C.2   159  ASP159      0.3668
     98  OD1        7.5970   37.7730    8.8400 O.co2 159  ASP159     -0.2456
     99  OD2        5.9330   36.9120    9.9610 O.co2 159  ASP159     -0.2456
    100  N          9.1280   44.6110   14.7520 N.3   162  LEU162     -0.1245
    101  CA        10.5550   44.7890   14.9910 C.3   162  LEU162      0.1561
    102  C         10.7260   45.9260   16.0020 C.2   162  LEU162      0.2260
    103  O         10.0650   46.9590   15.9050 O.2   162  LEU162     -0.2867
    104  CB        11.2900   45.1140   13.6820 C.3   162  LEU162      0.0270
    105  CG        11.5570   43.8880   12.7970 C.3   162  LEU162      0.0019
    106  CD1       12.1550   44.3170   11.4450 C.3   162  LEU162      0.0001
    107  CD2       12.5240   42.9350   13.5370 C.3   162  LEU162      0.0001
    108  N         23.1870   39.9260   12.9910 N.3   174  SER174     -0.1217
    109  CA        22.2270   39.8810   14.0880 C.3   174  SER174      0.1889
    110  C         22.7160   40.8130   15.1870 C.2   174  SER174      0.2288
    111  O         23.9110   41.0040   15.3610 O.2   174  SER174     -0.2866
    112  CB        22.0980   38.4580   14.6390 C.3   174  SER174      0.2089
    113  OG        23.2830   38.0670   15.3080 O.3   174  SER174     -0.2183
    114  N         12.5600   41.1460   17.8770 N.3   180  TRP180     -0.1241
    115  CA        11.5160   40.5740   17.0400 C.3   180  TRP180      0.1605
    116  C         10.5060   39.7860   17.8520 C.2   180  TRP180      0.2264
    117  O         10.8730   39.0520   18.7700 O.2   180  TRP180     -0.2867
    118  CB        12.1580   39.6630   15.9920 C.3   180  TRP180      0.0550
    119  CG        11.2060   38.8410   15.1720 C.ar  180  TRP180      0.0003
    120  CD1       10.9350   37.5100   15.3230 C.ar  180  TRP180      0.0946
    121  CD2       10.4690   39.2690   14.0130 C.ar  180  TRP180      0.0152
    122  NE1       10.0870   37.0800   14.3270 N.ar  180  TRP180     -0.2442
    123  CE2        9.7870   38.1360   13.5090 C.ar  180  TRP180      0.0810
    124  CE3       10.3230   40.4980   13.3490 C.ar  180  TRP180      0.0012
    125  CZ2        8.9740   38.1950   12.3690 C.ar  180  TRP180      0.0191
    126  CZ3        9.5130   40.5540   12.2150 C.ar  180  TRP180      0.0001
    127  CH2        8.8510   39.4100   11.7390 C.ar  180  TRP180      0.0015
    128  N          6.2570   38.0170   17.3100 N.3   182  ARG182     -0.1245
    129  CA         5.0530   37.8640   16.5280 C.3   182  ARG182      0.1563
    130  C          4.0870   38.7480   17.3120 C.2   182  ARG182      0.2260
    131  O          4.2370   38.9100   18.5330 O.2   182  ARG182     -0.2867
    132  CB         4.6090   36.4050   16.5220 C.3   182  ARG182      0.0307
    133  CG         5.5470   35.5070   15.7320 C.3   182  ARG182      0.0489
    134  CD         5.6770   35.9960   14.2940 C.3   182  ARG182      0.2205
    135  NE         6.4390   35.0730   13.4590 N.pl3 182  ARG182     -0.0865
    136  CZ         6.0960   33.8060   13.2450 C.cat 182  ARG182      0.5346
    137  NH1        6.8440   33.0270   12.4720 N.pl3 182  ARG182      0.1354
    138  NH2        4.9970   33.3190   13.8050 N.pl3 182  ARG182      0.1354
@<TRIPOS>BOND
     1    74    72    1
     2    68    69    1
     3    73    72    1
     4    72    69    1
     5    69    70    1
     6    53    52    1
     7    53    54    1
     8    71    70    2
     9    52    49    1
    10    70    75   am
    11    55    54    1
    12    55    56    1
    13    51    50    2
    14    60    59    2
    15    87    86    2
    16    75    76    1
    17    86    85    1
    18    49    48    1
    19    49    50    1
    20    48    46   am
    21    50    57   am
    22    59    58    1
    23    77    76    1
    24    77    78    2
    25    45    46    1
    26    45    44    1
    27    46    47    2
    28    84    85    1
    29    76    79    1
    30    85    88    1
    31    57    58    1
    32    58    61    1
    33    79    80    1
    34    90    88    1
    35    88    89    1
    36    61    62    1
    37    89    91    1
    38    80    81    1
    39    63    62    1
    40    63    64    1
    41    64    65    2
    42    81    82    1
    43    82    83    1
    44    65    67    1
    45    65    66    1
    46    40    41    2
    47    40    39    1
    48    98    97   ar
    49    96    97    1
    50    96    93    1
    51     7     6    1
    52    39    42    1
    53    39    38    1
    54    97    99   ar
    55    42    43    1
    56    92    93    1
    57     8     6    1
    58    93    94    1
    59     6     5    1
    60    94    95    2
    61     1     2    1
    62     5     2    1
    63   106   105    1
    64     2     3    1
    65   127   126   ar
    66   127   125   ar
    67   126   124   ar
    68   125   123   ar
    69   137   136    1
    70   105   107    1
    71   105   104    1
    72   108   109    1
    73     3     9   am
    74     3     4    2
    75   136   135    2
    76   136   138    1
    77   124   121   ar
    78     9    10    1
    79   135   134    1
    80   123   121   ar
    81   123   122   ar
    82   104   101    1
    83    14    13    1
    84   121   119   ar
    85   109   112    1
    86   109   110    1
    87   134   133    1
    88   122   120   ar
    89   112   113    1
    90    13    10    1
    91    10    11    1
    92   100   101    1
    93    12    11    2
    94   101   102    1
    95   119   120   ar
    96   119   118    1
    97   110   111    2
    98    11    15   am
    99   133   132    1
   100   103   102    2
   101   118   115    1
   102    35    37   ar
   103    35    33   ar
   104   132   129    1
   105   129   128    1
   106   129   130    1
   107    15    16    1
   108    37    36   ar
   109    22    21   ar
   110   115   116    1
   111   115   114    1
   112    32    33   ar
   113    32    30   ar
   114    33    31   ar
   115   130   131    2
   116    21    23   ar
   117    21    20    1
   118    16    17    1
   119    16    19    1
   120    36    34   ar
   121   116   117    2
   122    20    19    1
   123    30    29   ar
   124    17    18    2
   125    17    24   am
   126    31    34   ar
   127    31    29   ar
   128    24    25    1
   129    29    28    1
   130    25    28    1
   131    25    26    1
   132    26    27    2
