@<TRIPOS>MOLECULE
tmp/1xkbB00.pdb
 204 203 0 0 0
SMALL
GASTEIGER

@<TRIPOS>ATOM
      1  N         -7.6520    0.1530    6.5690 N.3    42  HIS42      -0.1241
      2  CA        -8.5750    1.1000    7.1500 C.3    42  HIS42       0.1621
      3  C         -8.3410    2.5260    6.6950 C.2    42  HIS42       0.2264
      4  O         -9.2560    3.3390    6.7370 O.2    42  HIS42      -0.2867
      5  CB        -8.5210    0.9960    8.6760 C.3    42  HIS42       0.0745
      6  CG        -7.4680    1.8450    9.3170 C.ar   42  HIS42       0.0817
      7  ND1       -6.3450    1.3110    9.9150 N.ar   42  HIS42      -0.2268
      8  CD2       -7.3910    3.1850    9.5070 C.ar   42  HIS42       0.1154
      9  CE1       -5.6240    2.2860   10.4450 C.ar   42  HIS42       0.1986
     10  NE2       -6.2390    3.4310   10.2110 N.ar   42  HIS42      -0.2212
     11  N        -10.7150    6.7470    4.7310 N.3    46  GLN46      -0.1245
     12  CA       -10.6740    8.0090    5.4620 C.3    46  GLN46       0.1566
     13  C        -10.4020    9.2220    4.5660 C.2    46  GLN46       0.2260
     14  O         -9.9300   10.2600    5.0260 O.2    46  GLN46      -0.2867
     15  CB        -9.6370    7.9140    6.5770 C.3    46  GLN46       0.0367
     16  CG        -9.7990    6.6610    7.3950 C.3    46  GLN46       0.0905
     17  CD        -9.2710    6.8000    8.8040 C.2    46  GLN46       0.2608
     18  OE1       -8.0680    6.7040    9.0450 O.2    46  GLN46      -0.2717
     19  NE2      -10.1690    7.0190    9.7480 N.am   46  GLN46      -0.0878
     20  N        -13.4970   -4.2150    9.4190 N.3    82  LYS82      -0.1231
     21  CA       -13.6980   -2.8880    9.9900 C.3    82  LYS82       0.1693
     22  C        -13.9160   -2.7920   11.5050 C.2    82  LYS82       0.2592
     23  O        -13.5460   -1.7870   12.1250 O.2    82  LYS82      -0.2718
     24  CB       -14.8370   -2.1650    9.2480 C.3    82  LYS82       0.0285
     25  CG       -16.2530   -2.5680    9.6470 C.3    82  LYS82       0.0035
     26  CD       -17.2260   -2.3890    8.4790 C.3    82  LYS82       0.0206
     27  CE       -18.6570   -2.1550    8.9580 C.3    82  LYS82       0.1093
     28  NZ       -18.7760   -1.0320    9.9400 N.3    82  LYS82      -0.1314
     29  N        -14.4940   -3.8250   12.1080 N.am   83  GLU83      -0.1966
     30  CA       -14.7570   -3.8040   13.5440 C.3    83  GLU83       0.1733
     31  C        -13.5600   -4.1700   14.4180 C.2    83  GLU83       0.2617
     32  O        -13.3510   -3.5730   15.4670 O.2    83  GLU83      -0.2715
     33  CB       -15.9260   -4.7380   13.8730 C.3    83  GLU83       0.0429
     34  CG       -16.5320   -4.5160   15.2610 C.3    83  GLU83       0.1163
     35  CD       -17.1350   -3.1200   15.4340 C.2    83  GLU83       0.3649
     36  OE1      -17.4670   -2.4710   14.4130 O.co2  83  GLU83      -0.2457
     37  OE2      -17.2780   -2.6670   16.5930 O.co2  83  GLU83      -0.2457
     38  N        -12.7810   -5.1600   13.9920 N.am   84  THR84      -0.1937
     39  CA       -11.6150   -5.6060   14.7510 C.3    84  THR84       0.2028
     40  C        -10.3150   -5.0340   14.1900 C.2    84  THR84       0.2642
     41  O         -9.3100   -4.9540   14.8970 O.2    84  THR84      -0.2714
     42  CB       -11.5010   -7.1220   14.7240 C.3    84  THR84       0.1808
     43  OG1      -11.6500   -7.5740   13.3750 O.3    84  THR84      -0.2208
     44  CG2      -12.5780   -7.7480   15.5770 C.3    84  THR84       0.0379
     45  N        -10.3540   -4.6410   12.9190 N.am   85  TYR85      -0.1973
     46  CA        -9.2040   -4.0790   12.2080 C.3    85  TYR85       0.1639
     47  C         -8.2140   -5.1740   11.8250 C.2    85  TYR85       0.2290
     48  O         -7.0390   -4.8990   11.5680 O.2    85  TYR85      -0.2864
     49  CB        -8.5010   -3.0000   13.0480 C.3    85  TYR85       0.0560
     50  CG        -8.9020   -1.5730   12.7110 C.ar   85  TYR85      -0.0198
     51  CD1      -10.2020   -1.2640   12.3130 C.ar   85  TYR85      -0.0009
     52  CD2       -7.9890   -0.5330   12.8210 C.ar   85  TYR85      -0.0009
     53  CE1      -10.5810    0.0460   12.0320 C.ar   85  TYR85       0.0417
     54  CE2       -8.3550    0.7790   12.5440 C.ar   85  TYR85       0.0417
     55  CZ        -9.6510    1.0620   12.1520 C.ar   85  TYR85       0.1957
     56  OH       -10.0080    2.3600   11.8740 O.3    85  TYR85      -0.2866
     57  N         -2.0690   12.6560   22.2410 N.3   135  GLU135     -0.1245
     58  CA        -3.4220   12.1970   21.9250 C.3   135  GLU135      0.1567
     59  C         -4.3460   13.3490   21.5340 C.2   135  GLU135      0.2260
     60  O         -5.0990   13.2530   20.5640 O.2   135  GLU135     -0.2867
     61  CB        -4.0300   11.4460   23.1100 C.3   135  GLU135      0.0388
     62  CG        -5.1810   10.5460   22.7080 C.3   135  GLU135      0.1160
     63  CD        -5.8730    9.9120   23.8900 C.2   135  GLU135      0.3649
     64  OE1       -5.1700    9.4460   24.8120 O.co2 135  GLU135     -0.2457
     65  OE2       -7.1240    9.8790   23.8910 O.co2 135  GLU135     -0.2457
     66  N         -9.4520   -4.8910   23.4390 N.3   162  PHE162     -0.1227
     67  CA        -9.8960   -5.3750   22.1410 C.3   162  PHE162      0.1736
     68  C         -9.0640   -6.5850   21.7900 C.2   162  PHE162      0.2595
     69  O         -7.9360   -6.7190   22.2530 O.2   162  PHE162     -0.2718
     70  CB        -9.7440   -4.2770   21.1070 C.3   162  PHE162      0.0547
     71  CG       -10.5110   -3.0510   21.4530 C.ar  162  PHE162     -0.0202
     72  CD1      -11.8940   -3.0370   21.3400 C.ar  162  PHE162     -0.0042
     73  CD2       -9.8660   -1.9270   21.9520 C.ar  162  PHE162     -0.0042
     74  CE1      -12.6290   -1.9290   21.7240 C.ar  162  PHE162     -0.0003
     75  CE2      -10.5950   -0.8080   22.3400 C.ar  162  PHE162     -0.0003
     76  CZ       -11.9820   -0.8140   22.2240 C.ar  162  PHE162     -0.0000
     77  N         -9.6190   -7.4800   20.9860 N.am  163  ILE163     -0.1980
     78  CA        -8.8920   -8.6860   20.6320 C.3   163  ILE163      0.1595
     79  C         -7.6380   -8.3900   19.8320 C.2   163  ILE163      0.2287
     80  O         -7.6190   -7.5150   18.9700 O.2   163  ILE163     -0.2864
     81  CB        -9.7700   -9.6730   19.8350 C.3   163  ILE163      0.0276
     82  CG1       -9.0120  -10.9860   19.6200 C.3   163  ILE163      0.0022
     83  CG2      -10.1600   -9.0610   18.5120 C.3   163  ILE163      0.0022
     84  CD1       -9.8990  -12.2070   19.4810 C.3   163  ILE163      0.0001
     85  N          4.6720    6.7780   21.8860 N.3   179  ASP179     -0.1225
     86  CA         3.8850    5.8570   21.0720 C.3   179  ASP179      0.1805
     87  C          3.5300    6.5140   19.7320 C.2   179  ASP179      0.2598
     88  O          3.9370    7.6490   19.4600 O.2   179  ASP179     -0.2718
     89  CB         2.6070    5.5050   21.8430 C.3   179  ASP179      0.1424
     90  CG         1.8120    4.3790   21.2080 C.2   179  ASP179      0.3668
     91  OD1        2.2990    3.7350   20.2460 O.co2 179  ASP179     -0.2456
     92  OD2        0.6800    4.1460   21.6910 O.co2 179  ASP179     -0.2456
     93  N          2.7930    5.7980   18.8860 N.am  180  ALA180     -0.1966
     94  CA         2.3570    6.3540   17.6090 C.3   180  ALA180      0.1728
     95  C          0.9970    6.9930   17.8920 C.2   180  ALA180      0.2616
     96  O          0.5470    6.9770   19.0230 O.2   180  ALA180     -0.2715
     97  CB         2.2330    5.2550   16.5600 C.3   180  ALA180      0.0334
     98  N          0.3450    7.5590   16.8870 N.am  181  CYS181     -0.1954
     99  CA        -0.9450    8.1970   17.1190 C.3   181  CYS181      0.1843
    100  C         -1.6440    8.4530   15.7920 C.2   181  CYS181      0.2625
    101  O         -1.0780    8.1940   14.7350 O.2   181  CYS181     -0.2714
    102  CB        -0.7390    9.5130   17.8840 C.3   181  CYS181      0.0997
    103  SG        -2.0790   10.0340   19.0140 S.3   181  CYS181     -0.0797
    104  N         -2.8750    8.9540   15.8520 N.am  182  GLN182     -0.1977
    105  CA        -3.6480    9.2350   14.6470 C.3   182  GLN182      0.1601
    106  C         -2.8370   10.0810   13.6890 C.2   182  GLN182      0.2287
    107  O         -2.2740   11.1010   14.0800 O.2   182  GLN182     -0.2864
    108  CB        -4.9410    9.9620   14.9980 C.3   182  GLN182      0.0394
    109  CG        -5.7820    9.2180   15.9920 C.3   182  GLN182      0.0908
    110  CD        -6.9250   10.0480   16.5130 C.2   182  GLN182      0.2608
    111  OE1       -6.9720   10.3930   17.6960 O.2   182  GLN182     -0.2717
    112  NE2       -7.8590   10.3760   15.6340 N.am  182  GLN182     -0.0878
    113  N         -0.9970    6.2670   11.3890 N.3   185  SER185     -0.1217
    114  CA        -1.6160    5.0450   10.9060 C.3   185  SER185      0.1889
    115  C         -1.2730    4.7580    9.4450 C.2   185  SER185      0.2288
    116  O         -1.2330    5.6610    8.6180 O.2   185  SER185     -0.2866
    117  CB        -3.1270    5.1350   11.1000 C.3   185  SER185      0.2089
    118  OG        -3.4410    5.1340   12.4780 O.3   185  SER185     -0.2183
    119  N          1.4170    0.7140   11.1240 N.3   203  VAL203     -0.1231
    120  CA         0.7120    1.2930   12.2560 C.3   203  VAL203      0.1692
    121  C         -0.7800    1.1000   11.9970 C.2   203  VAL203      0.2593
    122  O         -1.3450    1.6920   11.0750 O.2   203  VAL203     -0.2718
    123  CB         1.0350    2.7860   12.4300 C.3   203  VAL203      0.0266
    124  CG1        0.4030    3.3040   13.7200 C.3   203  VAL203      0.0020
    125  CG2        2.5420    2.9900   12.4620 C.3   203  VAL203      0.0020
    126  N         -1.3970    0.2470   12.8140 N.am  204  SER204     -0.1938
    127  CA        -2.8150   -0.0920   12.7130 C.3   204  SER204      0.2055
    128  C         -3.7180    0.7650   13.6080 C.2   204  SER204      0.2643
    129  O         -4.5110    1.5690   13.1180 O.2   204  SER204     -0.2714
    130  CB        -3.0140   -1.5630   13.0730 C.3   204  SER204      0.2130
    131  OG        -4.2100   -2.0540   12.5100 O.3   204  SER204     -0.2179
    132  N         -3.5920    0.6000   14.9220 N.am  205  TRP205     -0.1959
    133  CA        -4.4250    1.3530   15.8390 C.3   205  TRP205      0.1771
    134  C         -3.9240    1.2280   17.2610 C.2   205  TRP205      0.2620
    135  O         -2.9150    0.5840   17.5150 O.2   205  TRP205     -0.2715
    136  CB        -5.8590    0.8290   15.7620 C.3   205  TRP205      0.0590
    137  CG        -5.9580   -0.6350   16.0650 C.ar  205  TRP205      0.0006
    138  CD1       -5.8770   -1.6660   15.1730 C.ar  205  TRP205      0.0946
    139  CD2       -6.1180   -1.2310   17.3560 C.ar  205  TRP205      0.0152
    140  NE1       -5.9740   -2.8700   15.8310 N.ar  205  TRP205     -0.2442
    141  CE2       -6.1240   -2.6320   17.1720 C.ar  205  TRP205      0.0810
    142  CE3       -6.2570   -0.7220   18.6520 C.ar  205  TRP205      0.0012
    143  CZ2       -6.2630   -3.5250   18.2320 C.ar  205  TRP205      0.0191
    144  CZ3       -6.3980   -1.6110   19.7100 C.ar  205  TRP205      0.0001
    145  CH2       -6.3990   -3.0000   19.4910 C.ar  205  TRP205      0.0015
    146  N         -4.6450    1.8460   18.1880 N.am  206  GLY206     -0.1940
    147  CA        -4.2810    1.7710   19.5890 C.3   206  GLY206      0.2014
    148  C         -5.3690    2.4270   20.4150 C.2   206  GLY206      0.2639
    149  O         -6.1600    3.1890   19.8810 O.2   206  GLY206     -0.2714
    150  N         -5.4340    2.1200   21.7060 N.am  207  GLU207     -0.1963
    151  CA        -6.4230    2.7360   22.5820 C.3   207  GLU207      0.1733
    152  C         -5.8060    4.0380   23.0910 C.2   207  GLU207      0.2617
    153  O         -5.1710    4.0720   24.1460 O.2   207  GLU207     -0.2715
    154  CB        -6.7340    1.8140   23.7580 C.3   207  GLU207      0.0429
    155  CG        -7.5030    0.5570   23.3740 C.3   207  GLU207      0.1163
    156  CD        -7.6400   -0.4050   24.5300 C.2   207  GLU207      0.3649
    157  OE1       -8.2930   -0.0430   25.5310 O.co2 207  GLU207     -0.2457
    158  OE2       -7.0890   -1.5220   24.4430 O.co2 207  GLU207     -0.2457
    159  N         -5.9810    5.1080   22.3260 N.am  208  GLY208     -0.1940
    160  CA        -5.4130    6.3810   22.7170 C.3   208  GLY208      0.2014
    161  C         -3.9760    6.4590   22.2460 C.2   208  GLY208      0.2639
    162  O         -3.6130    5.8360   21.2560 O.2   208  GLY208     -0.2714
    163  N         -3.1540    7.2190   22.9540 N.am  209  CYS209     -0.1967
    164  CA        -1.7570    7.3640   22.5860 C.3   209  CYS209      0.1712
    165  C         -0.8860    7.5610   23.8200 C.2   209  CYS209      0.2296
    166  O         -1.0800    8.5090   24.5790 O.2   209  CYS209     -0.2864
    167  CB        -1.5890    8.5560   21.6390 C.3   209  CYS209      0.0983
    168  SG        -2.5240    8.3760   20.0930 S.3   209  CYS209     -0.0798
    169  N         -0.3360   -0.2030   24.7390 N.3   215  TYR215     -0.1227
    170  CA         0.6900   -0.0710   23.7100 C.3   215  TYR215      0.1736
    171  C          0.0590    0.2590   22.3660 C.2   215  TYR215      0.2596
    172  O         -1.1510    0.4680   22.2650 O.2   215  TYR215     -0.2718
    173  CB         1.4810   -1.3740   23.5800 C.3   215  TYR215      0.0548
    174  CG         1.9370   -1.9350   24.8990 C.ar  215  TYR215     -0.0200
    175  CD1        3.1000   -1.4710   25.5110 C.ar  215  TYR215     -0.0009
    176  CD2        1.1860   -2.9020   25.5590 C.ar  215  TYR215     -0.0009
    177  CE1        3.5070   -1.9550   26.7500 C.ar  215  TYR215      0.0417
    178  CE2        1.5820   -3.3940   26.7970 C.ar  215  TYR215      0.0417
    179  CZ         2.7400   -2.9130   27.3870 C.ar  215  TYR215      0.1957
    180  OH         3.1220   -3.3790   28.6260 O.3   215  TYR215     -0.2866
    181  N          0.8960    0.3090   21.3370 N.am  216  GLY216     -0.1942
    182  CA         0.4120    0.5890   20.0040 C.3   216  GLY216      0.2014
    183  C          0.2610   -0.7370   19.3070 C.2   216  GLY216      0.2639
    184  O          1.0030   -1.6600   19.5960 O.2   216  GLY216     -0.2714
    185  N         -0.6880   -0.8460   18.3910 N.am  217  ILE217     -0.1963
    186  CA        -0.9090   -2.1090   17.6970 C.3   217  ILE217      0.1727
    187  C         -0.5580   -2.0040   16.2240 C.2   217  ILE217      0.2616
    188  O         -0.9830   -1.0760   15.5410 O.2   217  ILE217     -0.2715
    189  CB        -2.3690   -2.5480   17.8440 C.3   217  ILE217      0.0290
    190  CG1       -2.8260   -2.2540   19.2720 C.3   217  ILE217      0.0022
    191  CG2       -2.5290   -4.0320   17.5020 C.3   217  ILE217      0.0023
    192  CD1       -2.7070   -3.4340   20.2100 C.3   217  ILE217      0.0001
    193  N          0.2200   -2.9680   15.7380 N.am  218  TYR218     -0.1974
    194  CA         0.6460   -2.9830   14.3480 C.3   218  TYR218      0.1639
    195  C          0.2700   -4.2720   13.6520 C.2   218  TYR218      0.2290
    196  O          0.0330   -5.2970   14.2880 O.2   218  TYR218     -0.2864
    197  CB         2.1640   -2.8300   14.2490 C.3   218  TYR218      0.0560
    198  CG         2.7180   -1.6190   14.9320 C.ar  218  TYR218     -0.0198
    199  CD1        2.9750   -1.6260   16.2880 C.ar  218  TYR218     -0.0009
    200  CD2        2.9700   -0.4530   14.2160 C.ar  218  TYR218     -0.0009
    201  CE1        3.4700   -0.4970   16.9210 C.ar  218  TYR218      0.0417
    202  CE2        3.4650    0.6820   14.8360 C.ar  218  TYR218      0.0417
    203  CZ         3.7080    0.6580   16.1900 C.ar  218  TYR218      0.1957
    204  OH         4.1620    1.8000   16.8180 O.3   218  TYR218     -0.2866
@<TRIPOS>BOND
     1    13    14    2
     2    13    12    1
     3    11    12    1
     4    12    15    1
     5     1     2    1
     6    15    16    1
     7     3     4    2
     8     3     2    1
     9     2     5    1
    10    16    17    1
    11    26    27    1
    12    26    25    1
    13   116   115    2
    14     5     6    1
    15    17    18    2
    16    17    19   am
    17    27    28    1
    18    24    25    1
    19    24    21    1
    20     6     8   ar
    21     6     7   ar
    22    20    21    1
    23   115   114    1
    24     8    10   ar
    25     7     9   ar
    26    21    22    1
    27    10     9   ar
    28   114   117    1
    29   114   113    1
    30   122   121    2
    31   117   118    1
    32   119   120    1
    33    22    29   am
    34    22    23    2
    35    48    47    2
    36    47    46    1
    37    56    55    1
    38   121   120    1
    39   121   126   am
    40    53    55   ar
    41    53    51   ar
    42    29    30    1
    43    55    54   ar
    44    46    45    1
    45    46    49    1
    46   120   123    1
    47    51    50   ar
    48   123   125    1
    49   123   124    1
    50   131   130    1
    51    54    52   ar
    52    50    52   ar
    53    50    49    1
    54   127   126    1
    55   127   130    1
    56   127   128    1
    57    45    40   am
    58   129   128    2
    59    43    42    1
    60    30    33    1
    61    30    31    1
    62   128   132   am
    63   195   196    2
    64   195   194    1
    65   106   107    2
    66   106   105    1
    67    33    34    1
    68    38    31   am
    69    38    39    1
    70    40    39    1
    71    40    41    2
    72   200   202   ar
    73   200   198   ar
    74   197   194    1
    75   197   198    1
    76   194   193    1
    77    36    35   ar
    78    31    32    2
    79   105   108    1
    80   105   104    1
    81    42    39    1
    82    42    44    1
    83   101   100    2
    84   202   203   ar
    85   132   133    1
    86   198   199   ar
    87   108   109    1
    88   138   140   ar
    89   138   137   ar
    90    34    35    1
    91    35    37   ar
    92   188   187    2
    93   112   110   am
    94   193   187   am
    95   136   133    1
    96   136   137    1
    97   100   104   am
    98   100    99    1
    99   140   141   ar
   100   133   134    1
   101   109   110    1
   102   137   139   ar
   103   203   204    1
   104   203   201   ar
   105   187   186    1
   106   199   201   ar
   107   110   111    2
   108    97    94    1
   109    98    99    1
   110    98    95   am
   111    99   102    1
   112   141   139   ar
   113   141   143   ar
   114   134   135    2
   115   134   146   am
   116   139   142   ar
   117   191   189    1
   118    94    95    1
   119    94    93    1
   120   186   189    1
   121   186   185    1
   122   189   190    1
   123   102   103    1
   124    95    96    2
   125   146   147    1
   126   143   145   ar
   127   185   183   am
   128    83    81    1
   129   142   144   ar
   130    93    87   am
   131    80    79    2
   132   103   168    1
   133   190   192    1
   134   183   184    2
   135   183   182    1
   136    88    87    2
   137    84    82    1
   138   145   144   ar
   139   147   148    1
   140    82    81    1
   141    87    86    1
   142    79    78    1
   143    81    78    1
   144   149   148    2
   145   182   181    1
   146   168   167    1
   147    91    90   ar
   148   148   150   am
   149    60    59    2
   150    78    77    1
   151    77    68   am
   152    86    89    1
   153    86    85    1
   154    70    71    1
   155    70    67    1
   156    90    92   ar
   157    90    89    1
   158   162   161    2
   159   181   171   am
   160    72    71   ar
   161    72    74   ar
   162    71    73   ar
   163    59    58    1
   164   167   164    1
   165   150   151    1
   166    74    76   ar
   167    68    67    1
   168    68    69    2
   169    58    57    1
   170    58    61    1
   171    73    75   ar
   172    67    66    1
   173    76    75   ar
   174   161   160    1
   175   161   163   am
   176   172   171    2
   177   159   160    1
   178   159   152   am
   179   171   170    1
   180   151   152    1
   181   151   154    1
   182   164   163    1
   183   164   165    1
   184    62    61    1
   185    62    63    1
   186   152   153    2
   187   155   154    1
   188   155   156    1
   189   173   170    1
   190   173   174    1
   191   170   169    1
   192   165   166    2
   193    63    65   ar
   194    63    64   ar
   195   158   156   ar
   196   156   157   ar
   197   174   175   ar
   198   174   176   ar
   199   175   177   ar
   200   176   178   ar
   201   177   179   ar
   202   178   179   ar
   203   179   180    1
