@<TRIPOS>MOLECULE
tmp/1xkdA00.pdb
 164 162 0 0 0
SMALL
GASTEIGER

@<TRIPOS>ATOM
      1  N        260.8190   90.2900 -149.0620 N.3   105  PRO105     -0.2102
      2  CA       260.3010   89.0910 -149.7310 C.3   105  PRO105      0.1504
      3  C        260.8560   87.8360 -149.0650 C.2   105  PRO105      0.2576
      4  O        261.8910   87.8870 -148.4030 O.2   105  PRO105     -0.2718
      5  CB       260.8160   89.2360 -151.1600 C.3   105  PRO105      0.0282
      6  CG       262.1150   90.0800 -150.9910 C.3   105  PRO105      0.0208
      7  CD       261.7140   91.0840 -149.9300 C.3   105  PRO105      0.0893
      8  N        260.1270   86.7410 -149.1810 N.am  106  LEU106     -0.1966
      9  CA       260.5570   85.4860 -148.6260 C.3   106  LEU106      0.1728
     10  C        260.6460   84.4450 -149.7150 C.2   106  LEU106      0.2616
     11  O        259.8530   84.4370 -150.6720 O.2   106  LEU106     -0.2715
     12  CB       259.6060   85.0180 -147.5260 C.3   106  LEU106      0.0311
     13  CG       259.6330   85.8430 -146.2310 C.3   106  LEU106      0.0022
     14  CD1      258.6180   85.3310 -145.2150 C.3   106  LEU106      0.0001
     15  CD2      261.0000   85.8260 -145.6360 C.3   106  LEU106      0.0001
     16  N        261.6230   83.5730 -149.5530 N.am  107  GLU107     -0.1963
     17  CA       261.8130   82.4670 -150.4490 C.3   107  GLU107      0.1733
     18  C        260.7870   81.3670 -150.1920 C.2   107  GLU107      0.2617
     19  O        260.4630   81.0570 -149.0440 O.2   107  GLU107     -0.2715
     20  CB       263.2120   81.9110 -150.2600 C.3   107  GLU107      0.0429
     21  CG       263.8930   81.5140 -151.5480 C.3   107  GLU107      0.1163
     22  CD       265.1820   80.8000 -151.2680 C.2   107  GLU107      0.3649
     23  OE1      266.0180   81.3690 -150.5060 O.co2 107  GLU107     -0.2457
     24  OE2      265.3430   79.6710 -151.7850 O.co2 107  GLU107     -0.2457
     25  N        260.2880   80.7780 -151.2740 N.am  108  THR108     -0.1951
     26  CA       259.4040   79.6210 -151.1920 C.3   108  THR108      0.1897
     27  C        260.2180   78.3510 -150.9220 C.2   108  THR108      0.2313
     28  O        261.0910   77.9900 -151.7130 O.2   108  THR108     -0.2863
     29  CB       258.6140   79.4770 -152.5030 C.3   108  THR108      0.1794
     30  OG1      257.9210   80.6990 -152.7630 O.3   108  THR108     -0.2208
     31  CG2      257.4880   78.4350 -152.3630 C.3   108  THR108      0.0378
     32  N        254.8540   83.2570 -146.8930 N.3   114  ASN114     -0.1240
     33  CA       253.9550   84.4120 -146.9540 C.3   114  ASN114      0.1653
     34  C        252.4890   84.0430 -146.6690 C.2   114  ASN114      0.2266
     35  O        251.7940   84.7690 -145.9690 O.2   114  ASN114     -0.2867
     36  CB       254.0560   85.1710 -148.2940 C.3   114  ASN114      0.1155
     37  CG       255.4850   85.6460 -148.6150 C.2   114  ASN114      0.2627
     38  OD1      256.1950   86.1950 -147.7600 O.2   114  ASN114     -0.2716
     39  ND2      255.9090   85.4270 -149.8580 N.am  114  ASN114     -0.0877
     40  N        258.5660   96.4290 -161.0780 N.3   317  GLY317     -0.1225
     41  CA       259.5620   96.2560 -160.0340 C.3   317  GLY317      0.1811
     42  C        259.4550   97.1940 -158.8310 C.2   317  GLY317      0.2280
     43  O        260.2010   97.0310 -157.8590 O.2   317  GLY317     -0.2866
     44  N        254.7550   94.8640 -147.6440 N.3   332  GLU332     -0.1231
     45  CA       255.8630   94.2330 -148.3480 C.3   332  GLU332      0.1684
     46  C        255.7480   94.4940 -149.8470 C.2   332  GLU332      0.2434
     47  O        254.6750   94.6980 -150.3530 O.2   332  GLU332     -0.2733
     48  CB       255.9130   92.7230 -148.0590 C.3   332  GLU332      0.0402
     49  CG       254.8650   91.9080 -148.7810 C.3   332  GLU332      0.1161
     50  CD       254.9100   90.4500 -148.3910 C.2   332  GLU332      0.3649
     51  OE1      255.8010   89.7140 -148.8690 O.co2 332  GLU332     -0.2457
     52  OE2      254.0810   90.0470 -147.5800 O.co2 332  GLU332     -0.2457
     53  N        256.8630   94.5100 -150.5580 N.am  333  PRO333     -0.2718
     54  CA       256.8060   94.7260 -152.0130 C.3   333  PRO333      0.1535
     55  C        256.1090   93.5720 -152.7170 C.2   333  PRO333      0.2598
     56  O        256.0140   92.4750 -152.1830 O.2   333  PRO333     -0.2715
     57  CB       258.2770   94.7970 -152.4330 C.3   333  PRO333      0.0310
     58  CG       259.0470   94.1850 -151.3080 C.3   333  PRO333      0.0237
     59  CD       258.2290   94.3140 -150.0520 C.3   333  PRO333      0.0939
     60  N        255.5700   93.8670 -153.8980 N.am  334  VAL334     -0.1964
     61  CA       255.0640   92.8640 -154.8150 C.3   334  VAL334      0.1727
     62  C        256.1950   91.9240 -155.2700 C.2   334  VAL334      0.2616
     63  O        256.0310   90.7050 -155.3190 O.2   334  VAL334     -0.2715
     64  CB       254.3480   93.5430 -156.0550 C.3   334  VAL334      0.0290
     65  CG1      253.9560   92.5000 -157.1360 C.3   334  VAL334      0.0023
     66  CG2      253.0900   94.3120 -155.6040 C.3   334  VAL334      0.0023
     67  N        257.3460   92.4800 -155.5850 N.am  335  HIS335     -0.1959
     68  CA       258.4550   91.6650 -156.1180 C.3   335  HIS335      0.1787
     69  C        258.9470   90.5640 -155.1690 C.2   335  HIS335      0.2621
     70  O        258.6510   90.5860 -153.9510 O.2   335  HIS335     -0.2715
     71  CB       259.6220   92.5530 -156.5770 C.3   335  HIS335      0.0785
     72  CG       260.3720   93.2360 -155.4650 C.ar  335  HIS335      0.0821
     73  ND1      261.2300   92.5650 -154.6160 N.ar  335  HIS335     -0.2267
     74  CD2      260.4510   94.5470 -155.1130 C.ar  335  HIS335      0.1154
     75  CE1      261.7910   93.4260 -153.7860 C.ar  335  HIS335      0.1986
     76  NE2      261.3430   94.6340 -154.0710 N.ar  335  HIS335     -0.2212
     77  N        259.6740   89.5940 -155.7420 N.am  336  GLY336     -0.1940
     78  CA       260.2350   88.4970 -154.9850 C.3   336  GLY336      0.2014
     79  C        261.6590   88.7350 -154.5090 C.2   336  GLY336      0.2640
     80  O        262.0980   89.8860 -154.4020 O.2   336  GLY336     -0.2714
     81  N        262.4030   87.6470 -154.2740 N.am  337  THR337     -0.1936
     82  CA       263.7140   87.7640 -153.6330 C.3   337  THR337      0.2028
     83  C        264.8320   88.1910 -154.5830 C.2   337  THR337      0.2642
     84  O        265.9660   88.4530 -154.1550 O.2   337  THR337     -0.2714
     85  CB       264.1040   86.4570 -152.8720 C.3   337  THR337      0.1808
     86  OG1      264.1270   85.3550 -153.7820 O.3   337  THR337     -0.2208
     87  CG2      263.0370   86.0510 -151.8760 C.3   337  THR337      0.0379
     88  N        264.5020   88.2990 -155.8700 N.am  338  ALA338     -0.1963
     89  CA       265.4890   88.6620 -156.9040 C.3   338  ALA338      0.1713
     90  C        266.8790   88.0770 -156.6500 C.2   338  ALA338      0.2458
     91  O        267.8540   88.8150 -156.5550 O.2   338  ALA338     -0.2730
     92  CB       265.5800   90.1720 -157.0300 C.3   338  ALA338      0.0333
     93  N        266.9860   86.7550 -156.5550 N.am  339  PRO339     -0.2716
     94  CA       268.2300   86.1010 -156.1040 C.3   339  PRO339      0.1536
     95  C        269.5290   86.4740 -156.8610 C.2   339  PRO339      0.2598
     96  O        270.6280   86.4240 -156.2470 O.2   339  PRO339     -0.2715
     97  CB       267.9240   84.6070 -156.2880 C.3   339  PRO339      0.0310
     98  CG       266.7760   84.5740 -157.2700 C.3   339  PRO339      0.0237
     99  CD       265.9370   85.7730 -156.8970 C.3   339  PRO339      0.0939
    100  N        269.4500   86.8460 -158.1360 N.am  340  LYS340     -0.1964
    101  CA       270.6930   87.1420 -158.8350 C.3   340  LYS340      0.1728
    102  C        271.2480   88.5160 -158.5110 C.2   340  LYS340      0.2616
    103  O        272.3960   88.8030 -158.8390 O.2   340  LYS340     -0.2715
    104  CB       270.6140   86.8970 -160.3500 C.3   340  LYS340      0.0311
    105  CG       269.5750   87.7110 -161.1250 C.3   340  LYS340      0.0038
    106  CD       269.6540   87.3950 -162.6270 C.3   340  LYS340      0.0206
    107  CE       269.0290   86.0370 -162.9900 C.3   340  LYS340      0.1093
    108  NZ       269.8620   85.2710 -163.9870 N.3   340  LYS340     -0.1314
    109  N        270.4480   89.3390 -157.8340 N.am  341  TYR341     -0.1974
    110  CA       270.8870   90.6490 -157.3770 C.3   341  TYR341      0.1639
    111  C        271.3230   90.6560 -155.9100 C.2   341  TYR341      0.2290
    112  O        271.8900   91.6320 -155.4320 O.2   341  TYR341     -0.2864
    113  CB       269.7750   91.6680 -157.6080 C.3   341  TYR341      0.0560
    114  CG       269.5370   91.9330 -159.0830 C.ar  341  TYR341     -0.0198
    115  CD1      268.4990   91.2990 -159.7810 C.ar  341  TYR341     -0.0009
    116  CD2      270.3900   92.7890 -159.7870 C.ar  341  TYR341     -0.0009
    117  CE1      268.3000   91.5530 -161.1440 C.ar  341  TYR341      0.0417
    118  CE2      270.2150   93.0420 -161.1330 C.ar  341  TYR341      0.0417
    119  CZ       269.1730   92.4320 -161.8110 C.ar  341  TYR341      0.1957
    120  OH       269.0310   92.7210 -163.1460 O.3   341  TYR341     -0.2866
    121  N        269.9470   96.2100 -156.5160 N.3   347  ILE347     -0.1231
    122  CA       268.4880   96.1600 -156.4860 C.3   347  ILE347      0.1692
    123  C        267.8200   97.5370 -156.2450 C.2   347  ILE347      0.2592
    124  O        268.3950   98.4060 -155.5780 O.2   347  ILE347     -0.2718
    125  CB       268.0160   95.1240 -155.4220 C.3   347  ILE347      0.0266
    126  CG1      266.5160   94.7960 -155.6000 C.3   347  ILE347      0.0019
    127  CG2      268.3490   95.6010 -153.9830 C.3   347  ILE347      0.0020
    128  CD1      266.2130   94.0000 -156.9100 C.3   347  ILE347      0.0001
    129  N        266.6340   97.7320 -156.8180 N.am  348  ASN348     -0.1974
    130  CA       265.8130   98.9240 -156.5520 C.3   348  ASN348      0.1688
    131  C        265.0000   98.7620 -155.2350 C.2   348  ASN348      0.2292
    132  O        264.1340   97.8830 -155.1300 O.2   348  ASN348     -0.2864
    133  CB       264.8760   99.2130 -157.7350 C.3   348  ASN348      0.1181
    134  CG       264.2010  100.5920 -157.6430 C.2   348  ASN348      0.2629
    135  OD1      264.2130  101.2420 -156.6020 O.2   348  ASN348     -0.2716
    136  ND2      263.5960  101.0210 -158.7310 N.am  348  ASN348     -0.0877
    137  N        269.6100  100.5920 -161.6120 N.3   388  GLN388     -0.1231
    138  CA       269.8350  100.1300 -162.9730 C.3   388  GLN388      0.1698
    139  C        268.5670   99.7390 -163.7120 C.2   388  GLN388      0.2592
    140  O        268.4820   99.9460 -164.9180 O.2   388  GLN388     -0.2718
    141  CB       270.9270   99.0300 -163.0130 C.3   388  GLN388      0.0381
    142  CG       270.5510   97.7570 -162.2720 C.3   388  GLN388      0.0905
    143  CD       269.7050   96.8560 -163.1270 C.2   388  GLN388      0.2608
    144  OE1      269.8730   96.8600 -164.3570 O.2   388  GLN388     -0.2717
    145  NE2      268.7690   96.1040 -162.5090 N.am  388  GLN388     -0.0878
    146  N        267.5890   99.1800 -163.0010 N.am  389  ASP389     -0.1974
    147  CA       266.3130   98.8030 -163.6040 C.3   389  ASP389      0.1709
    148  C        265.6000   99.9820 -164.2860 C.2   389  ASP389      0.2293
    149  O        264.9340   99.8040 -165.3020 O.2   389  ASP389     -0.2864
    150  CB       265.3770   98.1400 -162.5770 C.3   389  ASP389      0.1436
    151  CG       265.0230   99.0730 -161.4120 C.2   389  ASP389      0.3671
    152  OD1      265.9440   99.7070 -160.8290 O.co2 389  ASP389     -0.2456
    153  OD2      263.8490   99.2260 -161.0040 O.co2 389  ASP389     -0.2456
    154  N        268.3470  101.7270 -167.2210 N.3   392  ARG392     -0.1245
    155  CA       268.4620  100.9480 -168.4530 C.3   392  ARG392      0.1563
    156  C        267.4920  101.4660 -169.5020 C.2   392  ARG392      0.2260
    157  O        267.6240  101.1630 -170.6760 O.2   392  ARG392     -0.2867
    158  CB       268.1040   99.4790 -168.1870 C.3   392  ARG392      0.0307
    159  CG       269.2400   98.6190 -167.6490 C.3   392  ARG392      0.0489
    160  CD       268.9040   97.1180 -167.5570 C.3   392  ARG392      0.2205
    161  NE       267.5090   96.8320 -167.2190 N.pl3 392  ARG392     -0.0865
    162  CZ       267.1350   95.9020 -166.3370 C.cat 392  ARG392      0.5346
    163  NH1      268.0520   95.1680 -165.7100 N.pl3 392  ARG392      0.1354
    164  NH2      265.8440   95.7070 -166.0800 N.pl3 392  ARG392      0.1354
@<TRIPOS>BOND
     1   157   156    2
     2   156   155    1
     3   155   158    1
     4   155   154    1
     5   158   159    1
     6   159   160    1
     7   160   161    1
     8   161   162    2
     9   162   164    1
    10   162   163    1
    11   149   148    2
    12   140   139    2
    13   144   143    2
    14   148   147    1
    15   108   107    1
    16   139   146   am
    17   139   138    1
    18   147   146    1
    19   147   150    1
    20   120   119    1
    21   143   145   am
    22   143   142    1
    23   141   138    1
    24   141   142    1
    25   107   106    1
    26   138   137    1
    27   106   105    1
    28   150   151    1
    29   119   117   ar
    30   119   118   ar
    31   151   153   ar
    32   151   152   ar
    33   117   115   ar
    34   118   116   ar
    35   105   104    1
    36    40    41    1
    37   104   101    1
    38    41    42    1
    39   116   114   ar
    40   115   114   ar
    41   114   113    1
    42   103   102    2
    43   101   102    1
    44   101   100    1
    45    42    43    2
    46   136   134   am
    47   102   109   am
    48   100    95   am
    49   109   110    1
    50   133   134    1
    51   133   130    1
    52   134   135    2
    53   113   110    1
    54   110   111    1
    55    98    99    1
    56    98    97    1
    57    65    64    1
    58    92    89    1
    59   128   126    1
    60    89    90    1
    61    89    88    1
    62    99    93    1
    63    95    96    2
    64    95    94    1
    65   129   130    1
    66   129   123   am
    67    90    93   am
    68    90    91    2
    69    71    68    1
    70    71    72    1
    71    93    94    1
    72   130   131    1
    73   121   122    1
    74   122   123    1
    75   122   125    1
    76    97    94    1
    77   123   124    2
    78    68    67    1
    79    68    69    1
    80    64    66    1
    81    64    61    1
    82   111   112    2
    83    88    83   am
    84    77    69   am
    85    77    78    1
    86   126   125    1
    87    67    62   am
    88    72    74   ar
    89    72    73   ar
    90   125   127    1
    91    63    62    2
    92    62    61    1
    93   131   132    2
    94    69    70    2
    95    74    76   ar
    96    78    79    1
    97    61    60    1
    98    73    75   ar
    99    83    84    2
   100    83    82    1
   101    79    80    2
   102    79    81   am
   103    81    82    1
   104    76    75   ar
   105    60    55   am
   106    86    85    1
   107    82    85    1
   108    85    87    1
   109    30    29    1
   110    55    56    2
   111    55    54    1
   112    29    31    1
   113    29    26    1
   114    57    54    1
   115    57    58    1
   116    54    53    1
   117    24    22   ar
   118    28    27    2
   119    21    22    1
   120    21    20    1
   121    58    59    1
   122    25    26    1
   123    25    18   am
   124    22    23   ar
   125    26    27    1
   126     5     6    1
   127     5     2    1
   128     6     7    1
   129    11    10    2
   130    53    59    1
   131    53    46   am
   132    17    20    1
   133    17    18    1
   134    17    16    1
   135    47    46    2
   136    18    19    2
   137     7     1    1
   138    39    37   am
   139    46    45    1
   140     2     3    1
   141     2     1    1
   142    10    16   am
   143    10     9    1
   144     8     3   am
   145     8     9    1
   146     3     4    2
   147    51    50   ar
   148    49    50    1
   149    49    48    1
   150     9    12    1
   151    37    36    1
   152    37    38    2
   153    50    52   ar
   154    45    48    1
   155    45    44    1
   156    36    33    1
   157    12    13    1
   158    33    32    1
   159    33    34    1
   160    34    35    2
   161    13    15    1
   162    13    14    1
