@<TRIPOS>MOLECULE
tmp/1xkkA00.pdb
 218 204 0 0 0
SMALL
GASTEIGER

@<TRIPOS>ATOM
      1  N         17.9930   25.3880   36.3900 N.3    17  LEU17      -0.1231
      2  CA        18.0290   26.5320   35.4890 C.3    17  LEU17       0.1693
      3  C         19.5100   26.8360   35.2590 C.2    17  LEU17       0.2593
      4  O         19.9940   26.7500   34.1380 O.2    17  LEU17      -0.2718
      5  CB        17.3160   27.7440   36.0950 C.3    17  LEU17       0.0284
      6  CG        15.7980   27.5480   36.0060 C.3    17  LEU17       0.0019
      7  CD1       15.0970   28.6200   36.8200 C.3    17  LEU17       0.0001
      8  CD2       15.3440   27.6100   34.5610 C.3    17  LEU17       0.0001
      9  N         20.2320   27.1610   36.3250 N.am   18  GLY18      -0.1942
     10  CA        21.6460   27.4460   36.1890 C.3    18  GLY18       0.2014
     11  C         22.3420   27.7150   37.5090 C.2    18  GLY18       0.2639
     12  O         21.6950   27.8820   38.5390 O.2    18  GLY18      -0.2714
     13  N         23.6700   27.7560   37.4810 N.am   19  SER19      -0.1949
     14  CA        24.4470   28.0150   38.6880 C.3    19  SER19       0.1924
     15  C         24.9430   29.4590   38.7180 C.2    19  SER19       0.2314
     16  O         25.5980   29.9220   37.7810 O.2    19  SER19      -0.2863
     17  CB        25.6430   27.0660   38.7590 C.3    19  SER19       0.2116
     18  OG        26.4730   27.2760   37.6280 O.3    19  SER19      -0.2180
     19  N         20.0940   27.8920   40.9500 N.3    25  VAL25      -0.1245
     20  CA        18.6750   28.1570   40.7640 C.3    25  VAL25       0.1561
     21  C         18.0090   27.0100   40.0180 C.2    25  VAL25       0.2260
     22  O         18.5230   26.5320   39.0120 O.2    25  VAL25      -0.2867
     23  CB        18.4260   29.4470   39.9640 C.3    25  VAL25       0.0252
     24  CG1       16.9420   29.7810   39.9890 C.3    25  VAL25       0.0019
     25  CG2       19.2370   30.5820   40.5440 C.3    25  VAL25       0.0019
     26  N         10.7710   29.6940   40.7520 N.3    38  ALA38      -0.1245
     27  CA        12.2080   29.5440   40.6190 C.3    38  ALA38       0.1562
     28  C         12.6430   29.3810   42.0640 C.2    38  ALA38       0.2260
     29  O         12.1700   30.0990   42.9540 O.2    38  ALA38      -0.2867
     30  CB        12.8300   30.7840   40.0040 C.3    38  ALA38       0.0290
     31  N         16.0030   29.1360   44.5410 N.3    40  LYS40      -0.1245
     32  CA        17.4270   29.3610   44.6660 C.3    40  LYS40       0.1561
     33  C         17.9570   28.7700   45.9580 C.2    40  LYS40       0.2260
     34  O         17.5300   29.1530   47.0510 O.2    40  LYS40      -0.2867
     35  CB        17.7250   30.8530   44.6230 C.3    40  LYS40       0.0271
     36  CG        19.2160   31.0630   44.4950 C.3    40  LYS40       0.0035
     37  CD        19.4440   32.4420   43.9410 C.3    40  LYS40       0.0206
     38  CE        20.8880   32.5890   43.5400 C.3    40  LYS40       0.1093
     39  NZ        21.0060   33.7290   42.5970 N.3    40  LYS40      -0.1314
     40  N         13.8660   41.4240   50.6490 N.3    57  MET57      -0.1245
     41  CA        13.6320   40.8320   49.3340 C.3    57  MET57       0.1570
     42  C         12.1630   40.5240   49.1060 C.2    57  MET57       0.2261
     43  O         11.7280   40.3790   47.9700 O.2    57  MET57      -0.2867
     44  CB        14.4450   39.5420   49.1780 C.3    57  MET57       0.0387
     45  CG        15.9010   39.8810   48.9230 C.3    57  MET57       0.0595
     46  SD        16.9330   38.5220   49.4790 S.3    57  MET57      -0.1393
     47  CE        16.5000   37.2800   48.3450 C.3    57  MET57       0.0692
     48  N         11.7240   42.0320   40.9870 N.3    66  CYS66      -0.1221
     49  CA        11.2520   40.7180   41.3880 C.3    66  CYS66       0.1808
     50  C         11.0350   40.6950   42.8900 C.2    66  CYS66       0.2601
     51  O         11.7820   41.3120   43.6400 O.2    66  CYS66      -0.2717
     52  CB        12.2530   39.6350   40.9990 C.3    66  CYS66       0.0970
     53  SG        12.0730   39.2760   39.2390 S.3    66  CYS66      -0.0800
     54  N         10.0100   39.9720   43.3250 N.am   67  ARG67      -0.1965
     55  CA         9.6830   39.8750   44.7430 C.3    67  ARG67       0.1729
     56  C          9.8750   38.4530   45.2650 C.2    67  ARG67       0.2616
     57  O          9.5600   37.4800   44.5800 O.2    67  ARG67      -0.2715
     58  CB         8.2330   40.3260   44.9510 C.3    67  ARG67       0.0348
     59  CG         7.7830   40.0580   46.3640 C.3    67  ARG67       0.0492
     60  CD         6.3530   40.5770   46.5370 C.3    67  ARG67       0.2205
     61  NE         5.8970   40.2630   47.8870 N.pl3  67  ARG67      -0.0865
     62  CZ         5.6170   39.0330   48.3110 C.cat  67  ARG67       0.5346
     63  NH1        5.7370   38.0040   47.4830 N.pl3  67  ARG67       0.1354
     64  NH2        5.2450   38.8270   49.5670 N.pl3  67  ARG67       0.1354
     65  N         10.4070   38.3360   46.4750 N.am   68  LEU68      -0.1977
     66  CA        10.6250   37.0330   47.0850 C.3    68  LEU68       0.1596
     67  C          9.2650   36.5760   47.6050 C.2    68  LEU68       0.2287
     68  O          8.5850   37.3340   48.2940 O.2    68  LEU68      -0.2864
     69  CB        11.6220   37.1630   48.2400 C.3    68  LEU68       0.0297
     70  CG        12.1150   35.7770   48.6720 C.3    68  LEU68       0.0022
     71  CD1       12.9050   35.1060   47.5490 C.3    68  LEU68       0.0001
     72  CD2       12.9880   35.9330   49.9010 C.3    68  LEU68       0.0001
     73  N         15.4080   30.0650   48.5090 N.3    79  LEU79      -0.1231
     74  CA        14.6080   31.2510   48.2500 C.3    79  LEU79       0.1693
     75  C         13.6600   30.8710   47.1190 C.2    79  LEU79       0.2592
     76  O         14.0830   30.2560   46.1330 O.2    79  LEU79      -0.2718
     77  CB        15.5080   32.4150   47.8100 C.3    79  LEU79       0.0284
     78  CG        16.7010   32.5690   48.7670 C.3    79  LEU79       0.0019
     79  CD1       17.6800   33.6060   48.2150 C.3    79  LEU79       0.0001
     80  CD2       16.2160   32.9900   50.1460 C.3    79  LEU79       0.0001
     81  N         12.3820   31.2210   47.2690 N.am   80  ILE80      -0.1966
     82  CA        11.3820   30.9090   46.2560 C.3    80  ILE80       0.1727
     83  C         10.7250   32.1860   45.7260 C.2    80  ILE80       0.2617
     84  O         10.3410   33.0800   46.4870 O.2    80  ILE80      -0.2715
     85  CB        10.2980   29.9510   46.8140 C.3    80  ILE80       0.0290
     86  CG1       10.9370   28.6190   47.2360 C.3    80  ILE80       0.0022
     87  CG2        9.2310   29.7030   45.7670 C.3    80  ILE80       0.0023
     88  CD1       11.4480   28.7210   48.6600 C.3    80  ILE80       0.0001
     89  N         10.5960   32.2600   44.4080 N.am   81  THR81      -0.1937
     90  CA        10.0280   33.4290   43.7600 C.3    81  THR81       0.2028
     91  C          9.2810   32.9790   42.5010 C.2    81  THR81       0.2642
     92  O          9.4390   31.8390   42.0460 O.2    81  THR81      -0.2714
     93  CB        11.1750   34.4300   43.3960 C.3    81  THR81       0.1808
     94  OG1       10.6270   35.6970   43.0070 O.3    81  THR81      -0.2208
     95  CG2       12.0280   33.8740   42.2520 C.3    81  THR81       0.0379
     96  N          8.4680   33.8730   41.9410 N.am   82  GLN82      -0.1963
     97  CA         7.6990   33.5550   40.7450 C.3    82  GLN82       0.1733
     98  C          8.6450   33.2930   39.5790 C.2    82  GLN82       0.2616
     99  O          9.6320   34.0110   39.4050 O.2    82  GLN82      -0.2715
    100  CB         6.7540   34.7110   40.4020 C.3    82  GLN82       0.0408
    101  CG         5.9980   34.3780   39.1200 C.3    82  GLN82       0.0908
    102  CD         4.9830   35.4730   38.7920 C.2    82  GLN82       0.2608
    103  OE1        4.2750   35.3920   37.7910 O.2    82  GLN82      -0.2717
    104  NE2        4.9140   36.4970   39.6320 N.am   82  GLN82      -0.0878
    105  N          8.3410   32.2720   38.7820 N.am   83  LEU83      -0.1963
    106  CA         9.1710   31.9250   37.6340 C.3    83  LEU83       0.1728
    107  C          8.9530   32.8990   36.4760 C.2    83  LEU83       0.2616
    108  O          7.8190   33.1270   36.0660 O.2    83  LEU83      -0.2715
    109  CB         8.8470   30.4970   37.1860 C.3    83  LEU83       0.0311
    110  CG         9.7200   30.0610   35.9980 C.3    83  LEU83       0.0022
    111  CD1       11.2010   29.9600   36.3810 C.3    83  LEU83       0.0001
    112  CD2        9.2070   28.6990   35.5210 C.3    83  LEU83       0.0001
    113  N         10.0350   33.4890   35.9660 N.am   84  MET84      -0.1977
    114  CA         9.9460   34.4130   34.8310 C.3    84  MET84       0.1605
    115  C         10.0940   33.5550   33.5680 C.2    84  MET84       0.2287
    116  O         11.1940   33.1350   33.2090 O.2    84  MET84      -0.2864
    117  CB        11.0510   35.4710   34.9150 C.3    84  MET84       0.0413
    118  CG        10.8380   36.3390   36.1620 C.3    84  MET84       0.0598
    119  SD         9.3250   37.3480   35.9740 S.3    84  MET84      -0.1393
    120  CE         8.2200   36.5630   37.1310 C.3    84  MET84       0.0692
    121  N         13.1010   33.7130   30.8920 N.3    87  GLY87      -0.1210
    122  CA        14.4830   33.6060   31.3210 C.3    87  GLY87       0.1956
    123  C         15.1170   34.9530   31.5850 C.2    87  GLY87       0.2612
    124  O         14.4010   35.9290   31.8030 O.2    87  GLY87      -0.2717
    125  N         16.4490   35.0250   31.5660 N.am   88  CYS88      -0.1970
    126  CA        17.1050   36.3010   31.8280 C.3    88  CYS88       0.1712
    127  C         17.3480   37.1270   30.5770 C.2    88  CYS88       0.2296
    128  O         17.5190   36.5990   29.4780 O.2    88  CYS88      -0.2864
    129  CB        18.4140   36.1040   32.5940 C.3    88  CYS88       0.0983
    130  SG        19.6030   35.2580   31.5810 S.3    88  CYS88      -0.0798
    131  N         19.8830   38.7370   29.5180 N.3    90  LEU90      -0.1231
    132  CA        21.1330   38.4710   28.8140 C.3    90  LEU90       0.1693
    133  C         20.9340   37.4460   27.6940 C.2    90  LEU90       0.2592
    134  O         21.1790   37.7500   26.5290 O.2    90  LEU90      -0.2718
    135  CB        22.2030   37.9900   29.8070 C.3    90  LEU90       0.0284
    136  CG        23.5430   37.7430   29.0960 C.3    90  LEU90       0.0019
    137  CD1       24.0580   39.0040   28.4270 C.3    90  LEU90       0.0001
    138  CD2       24.5430   37.2580   30.1160 C.3    90  LEU90       0.0001
    139  N         20.4800   36.2420   28.0290 N.am   91  ASP91      -0.1974
    140  CA        20.2650   35.2280   26.9930 C.3    91  ASP91       0.1709
    141  C         19.2140   35.6690   25.9850 C.2    91  ASP91       0.2293
    142  O         19.2820   35.3090   24.8140 O.2    91  ASP91      -0.2864
    143  CB        19.8480   33.8800   27.6040 C.3    91  ASP91       0.1436
    144  CG        20.9910   33.3200   28.4510 C.2    91  ASP91       0.3671
    145  OD1       22.1710   33.4690   28.0490 O.co2  91  ASP91      -0.2456
    146  OD2       20.7080   32.7240   29.5150 O.co2  91  ASP91      -0.2456
    147  N         20.6910   37.8400   23.3650 N.3    94  ARG94      -0.1245
    148  CA        21.5910   36.9890   22.5920 C.3    94  ARG94       0.1563
    149  C         20.8030   36.1970   21.5610 C.2    94  ARG94       0.2260
    150  O         21.1890   36.1340   20.3930 O.2    94  ARG94      -0.2867
    151  CB        22.3450   36.0060   23.4920 C.3    94  ARG94       0.0307
    152  CG        23.4490   36.7280   24.2160 C.3    94  ARG94       0.0489
    153  CD        24.2460   35.7370   25.0440 C.3    94  ARG94       0.2205
    154  NE        25.3320   36.4460   25.7090 N.pl3  94  ARG94      -0.0865
    155  CZ        26.0830   35.9330   26.6750 C.cat  94  ARG94       0.5346
    156  NH1       27.0470   36.6630   27.2210 N.pl3  94  ARG94       0.1354
    157  NH2       25.8710   34.6910   27.0940 N.pl3  94  ARG94       0.1354
    158  N         22.4280   39.5900   33.3130 N.3   132  ARG132     -0.1245
    159  CA        22.0830   38.2350   33.7220 C.3   132  ARG132      0.1563
    160  C         21.1300   38.2640   34.9180 C.2   132  ARG132      0.2260
    161  O         20.4270   37.2960   35.1740 O.2   132  ARG132     -0.2867
    162  CB        23.3530   37.4230   34.0570 C.3   132  ARG132      0.0307
    163  CG        24.1310   38.1140   35.1680 C.3   132  ARG132      0.0489
    164  CD        25.3190   37.2440   35.6230 C.3   132  ARG132      0.2205
    165  NE        26.0300   37.9360   36.7020 N.pl3 132  ARG132     -0.0865
    166  CZ        26.9480   38.8830   36.5180 C.cat 132  ARG132      0.5346
    167  NH1       27.2960   39.2540   35.2930 N.pl3 132  ARG132      0.1354
    168  NH2       27.4920   39.4910   37.5630 N.pl3 132  ARG132      0.1354
    169  N         15.2680   39.7800   34.6560 N.3   135  LEU135     -0.1245
    170  CA        14.4030   38.7400   34.1170 C.3   135  LEU135      0.1561
    171  C         13.3440   39.2500   33.1400 C.2   135  LEU135      0.2260
    172  O         12.9460   40.4110   33.1780 O.2   135  LEU135     -0.2867
    173  CB        13.7290   37.9880   35.2700 C.3   135  LEU135      0.0270
    174  CG        14.7960   37.3130   36.1480 C.3   135  LEU135      0.0019
    175  CD1       14.1400   36.6110   37.3150 C.3   135  LEU135      0.0001
    176  CD2       15.6080   36.3050   35.3230 C.3   135  LEU135      0.0001
    177  N         16.4290   41.4240   39.5750 N.3   145  THR145     -0.1203
    178  CA        16.3940   40.4290   40.6220 C.3   145  THR145      0.1994
    179  C         17.7810   40.3040   41.2350 C.2   145  THR145      0.2618
    180  O         18.6980   41.0270   40.8590 O.2   145  THR145     -0.2717
    181  CB        15.9310   39.0520   40.0750 C.3   145  THR145      0.1784
    182  OG1       15.6300   38.1830   41.1740 O.3   145  THR145     -0.2211
    183  CG2       17.0240   38.4110   39.2090 C.3   145  THR145      0.0376
    184  N         17.9200   39.3960   42.1970 N.am  146  ASP146     -0.1959
    185  CA        19.1950   39.1390   42.8540 C.3   146  ASP146      0.1840
    186  C         19.7940   40.2410   43.7250 C.2   146  ASP146      0.2622
    187  O         20.9840   40.1920   44.0450 O.2   146  ASP146     -0.2715
    188  CB        20.2440   38.7030   41.8260 C.3   146  ASP146      0.1450
    189  CG        20.4670   37.2130   41.9640 C.2   146  ASP146      0.3671
    190  OD1       20.3500   36.6990   43.0950 O.co2 146  ASP146     -0.2456
    191  OD2       20.7660   36.5550   40.9510 O.co2 146  ASP146     -0.2456
    192  N         19.0000   41.2380   44.1080 N.am  147  PHE147     -0.1974
    193  CA        19.5410   42.2700   44.9770 C.3   147  PHE147      0.1639
    194  C         19.4640   41.7170   46.3850 C.2   147  PHE147      0.2290
    195  O         18.7610   40.7310   46.6340 O.2   147  PHE147     -0.2864
    196  CB        18.7560   43.5780   44.8810 C.3   147  PHE147      0.0560
    197  CG        17.2920   43.3360   45.0320 C.ar  147  PHE147     -0.0200
    198  CD1       16.5110   43.0210   43.9250 C.ar  147  PHE147     -0.0042
    199  CD2       16.6870   43.4300   46.2730 C.ar  147  PHE147     -0.0042
    200  CE1       15.1460   42.8070   44.0510 C.ar  147  PHE147     -0.0003
    201  CE2       15.3140   43.2160   46.4120 C.ar  147  PHE147     -0.0003
    202  CZ        14.5450   42.9060   45.2930 C.ar  147  PHE147     -0.0000
    203  N         21.3440   39.8110   48.0400 N.3   149  LEU149     -0.1245
    204  CA        22.2290   38.6760   48.2570 C.3   149  LEU149      0.1561
    205  C         23.6910   39.0300   48.4540 C.2   149  LEU149      0.2260
    206  O         24.3450   38.4840   49.3420 O.2   149  LEU149     -0.2867
    207  CB        22.1150   37.6710   47.1070 C.3   149  LEU149      0.0270
    208  CG        20.7540   36.9620   47.1460 C.3   149  LEU149      0.0019
    209  CD1       20.7730   35.8220   46.1290 C.3   149  LEU149      0.0001
    210  CD2       20.4550   36.4160   48.5380 C.3   149  LEU149      0.0001
    211  N         10.5030   26.3270   29.2170 N.3   278  MET278     -0.1245
    212  CA        10.1820   26.3380   30.6430 C.3   278  MET278      0.1570
    213  C          9.0850   25.3990   31.1360 C.2   278  MET278      0.2261
    214  O          9.1260   24.9680   32.2890 O.2   278  MET278     -0.2867
    215  CB         9.8360   27.7640   31.0690 C.3   278  MET278      0.0387
    216  CG        10.9460   28.6860   30.6200 C.3   278  MET278      0.0595
    217  SD        12.4770   28.1860   31.4090 S.3   278  MET278     -0.1393
    218  CE        12.6390   29.4770   32.6100 C.3   278  MET278      0.0692
@<TRIPOS>BOND
     1   150   149    2
     2   149   148    1
     3   148   147    1
     4   148   151    1
     5   151   152    1
     6   152   153    1
     7   142   141    2
     8   153   154    1
     9   154   155    2
    10   141   140    1
    11   134   133    2
    12   155   157    1
    13   155   156    1
    14   140   143    1
    15   140   139    1
    16   143   144    1
    17   133   139   am
    18   133   132    1
    19   145   144   ar
    20   137   136    1
    21   144   146   ar
    22   132   131    1
    23   132   135    1
    24   136   135    1
    25   136   138    1
    26   211   212    1
    27   128   127    2
    28   127   126    1
    29   216   215    1
    30   216   217    1
    31   212   215    1
    32   212   213    1
    33   121   122    1
    34   213   214    2
    35   122   123    1
    36   217   218    1
    37   125   123   am
    38   125   126    1
    39   130   129    1
    40   123   124    2
    41   126   129    1
    42   171   172    2
    43   171   170    1
    44   116   115    2
    45   158   159    1
    46   115   114    1
    47   159   162    1
    48   159   160    1
    49   162   163    1
    50   170   169    1
    51   170   173    1
    52     4     3    2
    53     8     6    1
    54   114   117    1
    55   114   113    1
    56   117   118    1
    57   160   161    2
    58   163   164    1
    59     3     2    1
    60     3     9   am
    61   173   174    1
    62   167   166    1
    63   176   174    1
    64     2     5    1
    65     2     1    1
    66   112   110    1
    67   164   165    1
    68   113   107   am
    69   119   118    1
    70   119   120    1
    71   110   111    1
    72   110   109    1
    73     6     5    1
    74     6     7    1
    75   108   107    2
    76   174   175    1
    77    10     9    1
    78    10    11    1
    79   107   106    1
    80   166   165    2
    81   166   168    1
    82   109   106    1
    83    13    11   am
    84    13    14    1
    85    11    12    2
    86    18    17    1
    87   106   105    1
    88    16    15    2
    89   103   102    2
    90    14    15    1
    91    14    17    1
    92   105    98   am
    93   102   101    1
    94   102   104   am
    95    22    21    2
    96   101   100    1
    97   183   181    1
    98    53    52    1
    99    99    98    2
   100   177   178    1
   101    98    97    1
   102    23    24    1
   103    23    25    1
   104    23    20    1
   105    30    27    1
   106    21    20    1
   107   181   178    1
   108   181   182    1
   109   100    97    1
   110    27    26    1
   111    27    28    1
   112   178   179    1
   113    97    96    1
   114    20    19    1
   115   180   179    2
   116   191   189   ar
   117    48    49    1
   118    52    49    1
   119   179   184   am
   120    49    50    1
   121   188   189    1
   122   188   185    1
   123    96    91   am
   124   189   190   ar
   125    92    91    2
   126    28    29    2
   127   184   185    1
   128    95    93    1
   129    91    90    1
   130    39    38    1
   131   185   186    1
   132    50    54   am
   133    50    51    2
   134    94    93    1
   135    54    55    1
   136    93    90    1
   137    38    37    1
   138   186   187    2
   139   186   192   am
   140    90    89    1
   141   198   200   ar
   142   198   197   ar
   143    37    36    1
   144   200   202   ar
   145   192   193    1
   146    89    83   am
   147    36    35    1
   148    31    32    1
   149    57    56    2
   150    35    32    1
   151    32    33    1
   152    55    58    1
   153    55    56    1
   154   196   193    1
   155   196   197    1
   156    58    59    1
   157   193   194    1
   158   197   199   ar
   159    56    65   am
   160   202   201   ar
   161    83    82    1
   162    83    84    2
   163    87    85    1
   164    33    34    2
   165   209   208    1
   166    76    75    2
   167    82    85    1
   168    82    81    1
   169   199   201   ar
   170    59    60    1
   171   194   195    2
   172    65    66    1
   173    60    61    1
   174    85    86    1
   175    66    67    1
   176    66    69    1
   177   207   208    1
   178   207   204    1
   179    75    81   am
   180    75    74    1
   181   208   210    1
   182    86    88    1
   183    63    62    1
   184    71    70    1
   185    67    68    2
   186    77    74    1
   187    77    78    1
   188    61    62    2
   189    43    42    2
   190   203   204    1
   191    79    78    1
   192    69    70    1
   193    74    73    1
   194   204   205    1
   195    62    64    1
   196    47    46    1
   197   205   206    2
   198    70    72    1
   199    78    80    1
   200    45    44    1
   201    45    46    1
   202    42    41    1
   203    44    41    1
   204    41    40    1
