@<TRIPOS>MOLECULE
tmp/1xklB00.pdb
 140 137 0 0 0
SMALL
GASTEIGER

@<TRIPOS>ATOM
      1  N         75.5230   23.2490   32.7780 N.3    10  GLY10      -0.1210
      2  CA        76.6140   23.5340   31.8680 C.3    10  GLY10       0.1956
      3  C         76.1380   23.9710   30.5000 C.2    10  GLY10       0.2611
      4  O         74.9510   24.2470   30.2950 O.2    10  GLY10      -0.2717
      5  N         77.0610   24.0300   29.5490 N.am   11  ALA11      -0.1979
      6  CA        76.7080   24.4460   28.2030 C.3    11  ALA11       0.1597
      7  C         75.7880   23.4540   27.5100 C.2    11  ALA11       0.2287
      8  O         75.9200   22.2300   27.6630 O.2    11  ALA11      -0.2864
      9  CB        77.9640   24.6550   27.3690 C.3    11  ALA11       0.0319
     10  N         72.9090   22.7600   28.1410 N.3    13  HIS13      -0.1241
     11  CA        71.9590   22.1080   29.0310 C.3    13  HIS13       0.1621
     12  C         71.0230   23.1050   29.6950 C.2    13  HIS13       0.2264
     13  O         70.8890   24.2440   29.2420 O.2    13  HIS13      -0.2867
     14  CB        72.7000   21.2770   30.0810 C.3    13  HIS13       0.0745
     15  CG        73.2910   20.0220   29.5260 C.ar   13  HIS13       0.0817
     16  ND1       74.2530   20.0270   28.5380 N.ar   13  HIS13      -0.2268
     17  CD2       73.0100   18.7190   29.7660 C.ar   13  HIS13       0.1154
     18  CE1       74.5360   18.7850   28.1930 C.ar   13  HIS13       0.1986
     19  NE2       73.7950   17.9710   28.9250 N.ar   13  HIS13      -0.2212
     20  N         78.1880   23.1780   37.0700 N.3    76  HIS76      -0.1226
     21  CA        78.5910   22.0330   36.2580 C.3    76  HIS76       0.1752
     22  C         79.1330   22.4790   34.9080 C.2    76  HIS76       0.2597
     23  O         78.5950   23.3970   34.2880 O.2    76  HIS76      -0.2718
     24  CB        77.3940   21.0900   36.0460 C.3    76  HIS76       0.0759
     25  CG        77.6810   19.9430   35.1270 C.ar   76  HIS76       0.0818
     26  ND1       77.0990   19.8210   33.8840 N.ar   76  HIS76      -0.2268
     27  CD2       78.4980   18.8710   35.2650 C.ar   76  HIS76       0.1154
     28  CE1       77.5430   18.7240   33.2960 C.ar   76  HIS76       0.1986
     29  NE2       78.3940   18.1300   34.1130 N.ar   76  HIS76      -0.2212
     30  N         80.2390   21.8650   34.4930 N.am   77  SER77      -0.1938
     31  CA        80.8000   22.1370   33.2990 C.3    77  SER77       0.2055
     32  C         80.9960   23.6390   33.0980 C.2    77  SER77       0.2642
     33  O         81.6040   24.2850   33.9520 O.2    77  SER77      -0.2714
     34  CB        79.9140   21.5410   32.2280 C.3    77  SER77       0.2130
     35  OG        80.2700   21.1400   30.9430 O.3    77  SER77      -0.2179
     36  N         80.4650   24.2040   32.0130 N.am   78  LEU78      -0.1977
     37  CA        80.6220   25.6340   31.7430 C.3    78  LEU78       0.1596
     38  C         80.0170   26.4440   32.8820 C.2    78  LEU78       0.2287
     39  O         80.3680   27.6060   33.0800 O.2    78  LEU78      -0.2864
     40  CB        79.9530   26.0190   30.4110 C.3    78  LEU78       0.0297
     41  CG        80.0220   27.5060   30.0220 C.3    78  LEU78       0.0022
     42  CD1       81.4820   27.8940   29.7430 C.3    78  LEU78       0.0001
     43  CD2       79.1700   27.7760   28.7910 C.3    78  LEU78       0.0001
     44  N         84.6230   24.2330   34.5650 N.3   101  PHE101     -0.1241
     45  CA        85.7270   25.1020   34.2470 C.3   101  PHE101      0.1605
     46  C         85.7500   26.0110   35.4520 C.2   101  PHE101      0.2264
     47  O         84.7220   26.5570   35.8450 O.2   101  PHE101     -0.2867
     48  CB        85.4560   25.8940   32.9800 C.3   101  PHE101      0.0534
     49  CG        85.5450   25.0730   31.7410 C.ar  101  PHE101     -0.0203
     50  CD1       84.4560   24.9740   30.8830 C.ar  101  PHE101     -0.0042
     51  CD2       86.7210   24.4020   31.4220 C.ar  101  PHE101     -0.0042
     52  CE1       84.5380   24.2200   29.7290 C.ar  101  PHE101     -0.0003
     53  CE2       86.8130   23.6440   30.2670 C.ar  101  PHE101     -0.0003
     54  CZ        85.7190   23.5520   29.4170 C.ar  101  PHE101     -0.0000
     55  N         92.1860   24.4620   27.8370 N.3   115  TYR115     -0.1241
     56  CA        91.3540   23.3130   27.5000 C.3   115  TYR115      0.1605
     57  C         91.3380   23.1160   25.9940 C.2   115  TYR115      0.2264
     58  O         91.5250   22.0070   25.5010 O.2   115  TYR115     -0.2867
     59  CB        89.9140   23.5140   27.9780 C.3   115  TYR115      0.0534
     60  CG        88.9780   22.4120   27.5160 C.ar  115  TYR115     -0.0201
     61  CD1       88.9220   21.1910   28.1860 C.ar  115  TYR115     -0.0009
     62  CD2       88.2000   22.5700   26.3680 C.ar  115  TYR115     -0.0009
     63  CE1       88.1170   20.1490   27.7220 C.ar  115  TYR115      0.0417
     64  CE2       87.3930   21.5350   25.8930 C.ar  115  TYR115      0.0417
     65  CZ        87.3590   20.3270   26.5770 C.ar  115  TYR115      0.1957
     66  OH        86.5700   19.3010   26.1060 O.3   115  TYR115     -0.2866
     67  N         85.7660   16.7180   19.5150 N.3   124  TRP124     -0.1241
     68  CA        84.4840   17.4210   19.4100 C.3   124  TRP124      0.1605
     69  C         83.4380   16.6260   18.6370 C.2   124  TRP124      0.2264
     70  O         82.2370   16.8890   18.7470 O.2   124  TRP124     -0.2867
     71  CB        84.6840   18.7840   18.7470 C.3   124  TRP124      0.0550
     72  CG        85.4270   19.7430   19.6170 C.ar  124  TRP124      0.0003
     73  CD1       86.6860   20.2400   19.4140 C.ar  124  TRP124      0.0946
     74  CD2       84.9520   20.3370   20.8290 C.ar  124  TRP124      0.0152
     75  NE1       87.0220   21.1020   20.4280 N.ar  124  TRP124     -0.2442
     76  CE2       85.9810   21.1700   21.3160 C.ar  124  TRP124      0.0810
     77  CE3       83.7660   20.2220   21.5670 C.ar  124  TRP124      0.0012
     78  CZ2       85.8450   21.9180   22.4870 C.ar  124  TRP124      0.0191
     79  CZ3       83.6320   20.9650   22.7350 C.ar  124  TRP124      0.0001
     80  CH2       84.6720   21.7910   23.1890 C.ar  124  TRP124      0.0015
     81  N         76.3850   20.8420   20.8520 N.3   143  PHE143     -0.1241
     82  CA        76.7640   19.4340   20.9350 C.3   143  PHE143      0.1605
     83  C         75.9270   18.5460   20.0150 C.2   143  PHE143      0.2264
     84  O         74.7040   18.6850   19.9530 O.2   143  PHE143     -0.2867
     85  CB        76.6060   18.9190   22.3710 C.3   143  PHE143      0.0534
     86  CG        77.4420   19.6500   23.3860 C.ar  143  PHE143     -0.0203
     87  CD1       78.6610   20.2080   23.0290 C.ar  143  PHE143     -0.0042
     88  CD2       77.0250   19.7460   24.7070 C.ar  143  PHE143     -0.0042
     89  CE1       79.4580   20.8500   23.9730 C.ar  143  PHE143     -0.0003
     90  CE2       77.8170   20.3870   25.6680 C.ar  143  PHE143     -0.0003
     91  CZ        79.0350   20.9390   25.2930 C.ar  143  PHE143     -0.0000
     92  N         78.7960   13.3760   20.0130 N.3   147  PHE147     -0.1241
     93  CA        79.6310   13.9630   21.0500 C.3   147  PHE147      0.1605
     94  C         78.9870   13.7170   22.4050 C.2   147  PHE147      0.2264
     95  O         79.6780   13.4710   23.3930 O.2   147  PHE147     -0.2867
     96  CB        79.8180   15.4680   20.8330 C.3   147  PHE147      0.0534
     97  CG        80.5860   16.1400   21.9380 C.ar  147  PHE147     -0.0203
     98  CD1       79.9210   16.8490   22.9370 C.ar  147  PHE147     -0.0042
     99  CD2       81.9730   16.0370   21.9960 C.ar  147  PHE147     -0.0042
    100  CE1       80.6250   17.4440   23.9830 C.ar  147  PHE147     -0.0003
    101  CE2       82.6900   16.6260   23.0360 C.ar  147  PHE147     -0.0003
    102  CZ        82.0130   17.3320   24.0310 C.ar  147  PHE147     -0.0000
    103  N         80.0700   12.7460   26.7240 N.3   152  LEU152     -0.1245
    104  CA        79.3980   13.2130   27.9250 C.3   152  LEU152      0.1561
    105  C         78.5240   12.1940   28.6330 C.2   152  LEU152      0.2260
    106  O         78.5100   12.1320   29.8640 O.2   152  LEU152     -0.2867
    107  CB        78.5590   14.4600   27.6010 C.3   152  LEU152      0.0270
    108  CG        79.2360   15.6300   26.8830 C.3   152  LEU152      0.0019
    109  CD1       78.3440   16.8850   27.0290 C.3   152  LEU152      0.0001
    110  CD2       80.6110   15.8970   27.4660 C.3   152  LEU152      0.0001
    111  N         81.1460   29.2080   24.3820 N.3   173  LEU173     -0.1245
    112  CA        82.1980   29.2150   25.3860 C.3   173  LEU173      0.1561
    113  C         82.5240   30.6770   25.6850 C.2   173  LEU173      0.2260
    114  O         83.2150   30.9820   26.6540 O.2   173  LEU173     -0.2867
    115  CB        83.4540   28.4940   24.8700 C.3   173  LEU173      0.0270
    116  CG        83.3600   26.9790   24.6940 C.3   173  LEU173      0.0019
    117  CD1       84.6520   26.4360   24.0940 C.3   173  LEU173      0.0001
    118  CD2       83.0780   26.3250   26.0490 C.3   173  LEU173      0.0001
    119  N         84.5930   14.4580   28.6710 N.3   203  GLY203     -0.1210
    120  CA        84.2980   15.7470   28.0670 C.3   203  GLY203      0.1956
    121  C         85.3610   16.7140   28.5320 C.2   203  GLY203      0.2611
    122  O         86.0130   17.3850   27.7390 O.2   203  GLY203     -0.2717
    123  N         85.5050   16.7870   29.8470 N.am  204  ILE204     -0.1979
    124  CA        86.5220   17.6040   30.4840 C.3   204  ILE204      0.1595
    125  C         87.2720   16.5310   31.2760 C.2   204  ILE204      0.2287
    126  O         86.9410   16.2370   32.4240 O.2   204  ILE204     -0.2864
    127  CB        85.9060   18.6470   31.4400 C.3   204  ILE204      0.0276
    128  CG1       84.9880   19.5950   30.6520 C.3   204  ILE204      0.0022
    129  CG2       87.0160   19.4420   32.1270 C.3   204  ILE204      0.0022
    130  CD1       84.2680   20.6320   31.5050 C.3   204  ILE204      0.0001
    131  N         80.8540   12.6330   32.6370 N.3   229  HIS229     -0.1241
    132  CA        80.6400   14.0800   32.7510 C.3   229  HIS229      0.1621
    133  C         79.3060   14.4620   33.3810 C.2   229  HIS229      0.2264
    134  O         79.1890   15.5050   34.0360 O.2   229  HIS229     -0.2867
    135  CB        80.7520   14.7460   31.3790 C.3   229  HIS229      0.0745
    136  CG        80.8370   16.2430   31.4350 C.ar  229  HIS229      0.0817
    137  ND1       81.8060   16.9060   32.1560 N.ar  229  HIS229     -0.2268
    138  CD2       80.0920   17.2010   30.8340 C.ar  229  HIS229      0.1154
    139  CE1       81.6540   18.2110   31.9980 C.ar  229  HIS229      0.1986
    140  NE2       80.6210   18.4160   31.2010 N.ar  229  HIS229     -0.2212
@<TRIPOS>BOND
     1    69    70    2
     2    69    68    1
     3    71    68    1
     4    71    72    1
     5    68    67    1
     6    73    72   ar
     7    73    75   ar
     8    72    74   ar
     9    84    83    2
    10    92    93    1
    11    83    82    1
    12    75    76   ar
    13    74    76   ar
    14    74    77   ar
    15    96    93    1
    16    96    97    1
    17    81    82    1
    18    82    85    1
    19    93    94    1
    20    76    78   ar
    21    77    79   ar
    22    97    99   ar
    23    97    98   ar
    24    99   101   ar
    25    85    86    1
    26    94    95    2
    27    78    80   ar
    28    79    80   ar
    29    98   100   ar
    30    87    86   ar
    31    87    89   ar
    32   101   102   ar
    33    86    88   ar
    34    89    91   ar
    35   100   102   ar
    36   117   116    1
    37   111   112    1
    38   116   115    1
    39   116   118    1
    40    88    90   ar
    41   115   112    1
    42    91    90   ar
    43   112   113    1
    44    58    57    2
    45   113   114    2
    46    64    62   ar
    47    64    65   ar
    48    57    56    1
    49    66    65    1
    50    62    60   ar
    51    65    63   ar
    52   103   104    1
    53   108   109    1
    54   108   110    1
    55   108   107    1
    56     9     6    1
    57    56    55    1
    58    56    59    1
    59     7     8    2
    60     7     6    1
    61    60    59    1
    62    60    61   ar
    63   107   104    1
    64    63    61   ar
    65   122   121    2
    66   104   105    1
    67   120   121    1
    68   120   119    1
    69    10    11    1
    70    18    16   ar
    71    18    19   ar
    72     6     5    1
    73   121   123   am
    74    16    15   ar
    75   105   106    2
    76    43    41    1
    77    19    17   ar
    78    11    12    1
    79    11    14    1
    80    13    12    2
    81    54    52   ar
    82    54    53   ar
    83    15    17   ar
    84    15    14    1
    85     5     3   am
    86    52    50   ar
    87    42    41    1
    88   123   124    1
    89    41    40    1
    90    53    51   ar
    91     4     3    2
    92    40    37    1
    93   124   125    1
    94   124   127    1
    95     3     2    1
    96   128   127    1
    97   128   130    1
    98   138   140   ar
    99   138   136   ar
   100    50    49   ar
   101    35    34    1
   102   140   139   ar
   103   125   126    2
   104   135   136    1
   105   135   132    1
   106    51    49   ar
   107   136   137   ar
   108   127   129    1
   109    49    48    1
   110    37    36    1
   111    37    38    1
   112     2     1    1
   113   139   137   ar
   114    36    32   am
   115    34    31    1
   116   131   132    1
   117   132   133    1
   118    38    39    2
   119    48    45    1
   120    32    31    1
   121    32    33    2
   122    28    26   ar
   123    28    29   ar
   124    31    30    1
   125   133   134    2
   126    26    25   ar
   127    29    27   ar
   128    45    44    1
   129    45    46    1
   130    23    22    2
   131    30    22   am
   132    22    21    1
   133    25    27   ar
   134    25    24    1
   135    46    47    2
   136    24    21    1
   137    21    20    1
