@<TRIPOS>MOLECULE
tmp/1xkxA02.pdb
 186 177 0 0 0
SMALL
GASTEIGER

@<TRIPOS>ATOM
      1  N         32.9770   20.1990   39.0780 N.3    77  GLU77      -0.1245
      2  CA        31.6490   20.6650   38.7090 C.3    77  GLU77       0.1567
      3  C         30.6710   19.5640   38.3300 C.2    77  GLU77       0.2260
      4  O         31.0080   18.6370   37.5930 O.2    77  GLU77      -0.2867
      5  CB        31.7360   21.6560   37.5410 C.3    77  GLU77       0.0388
      6  CG        32.6670   22.8380   37.7870 C.3    77  GLU77       0.1160
      7  CD        32.5820   23.8790   36.6970 C.2    77  GLU77       0.3649
      8  OE1       33.4690   24.7580   36.6480 O.co2  77  GLU77      -0.2457
      9  OE2       31.6240   23.8300   35.8940 O.co2  77  GLU77      -0.2457
     10  N         29.2990   25.5050   35.8050 N.3   122  ASN122     -0.1240
     11  CA        29.2310   26.7140   35.0040 C.3   122  ASN122      0.1653
     12  C         28.4490   26.5520   33.7230 C.2   122  ASN122      0.2266
     13  O         27.7750   27.4730   33.2770 O.2   122  ASN122     -0.2867
     14  CB        30.6360   27.1810   34.6610 C.3   122  ASN122      0.1155
     15  CG        31.2530   27.9750   35.7760 C.2   122  ASN122      0.2627
     16  OD1       30.9020   29.1360   35.9850 O.2   122  ASN122     -0.2716
     17  ND2       32.1570   27.3500   36.5210 N.am  122  ASN122     -0.0877
     18  N         28.6220   23.6870   30.1390 N.3   124  GLY124     -0.1210
     19  CA        28.8720   22.4180   29.4750 C.3   124  GLY124      0.1956
     20  C         29.6980   21.3710   30.1930 C.2   124  GLY124      0.2611
     21  O         29.3570   20.1860   30.1670 O.2   124  GLY124     -0.2717
     22  N         30.7930   21.7930   30.8180 N.am  125  LEU125     -0.1979
     23  CA        31.6650   20.8620   31.5230 C.3   125  LEU125      0.1596
     24  C         30.9390   20.2190   32.7020 C.2   125  LEU125      0.2287
     25  O         30.9850   19.0020   32.8720 O.2   125  LEU125     -0.2864
     26  CB        32.9280   21.5890   32.0090 C.3   125  LEU125      0.0297
     27  CG        33.9390   20.7500   32.7990 C.3   125  LEU125      0.0022
     28  CD1       34.4980   19.6670   31.9090 C.3   125  LEU125      0.0001
     29  CD2       35.0750   21.6380   33.2990 C.3   125  LEU125      0.0001
     30  N         27.9980   17.9860   31.4860 N.3   128  LEU128     -0.1245
     31  CA        28.4610   16.7230   30.9110 C.3   128  LEU128      0.1561
     32  C         28.6410   15.6980   32.0290 C.2   128  LEU128      0.2260
     33  O         28.2640   14.5320   31.8930 O.2   128  LEU128     -0.2867
     34  CB        29.7950   16.9040   30.1770 C.3   128  LEU128      0.0270
     35  CG        30.2880   15.6250   29.4860 C.3   128  LEU128      0.0019
     36  CD1       29.4710   15.3880   28.2260 C.3   128  LEU128      0.0001
     37  CD2       31.7650   15.7420   29.1390 C.3   128  LEU128      0.0001
     38  N         33.8320   30.7810   36.3320 N.3   265  ASN265     -0.1225
     39  CA        34.5090   30.9380   35.0540 C.3   265  ASN265      0.1785
     40  C         34.2560   29.7690   34.1190 C.2   265  ASN265      0.2597
     41  O         34.2880   28.6130   34.5310 O.2   265  ASN265     -0.2718
     42  CB        36.0220   31.0870   35.2620 C.3   265  ASN265      0.1169
     43  CG        36.3770   32.3120   36.0710 C.2   265  ASN265      0.2627
     44  OD1       35.9360   33.4170   35.7630 O.2   265  ASN265     -0.2716
     45  ND2       37.1810   32.1260   37.1110 N.am  265  ASN265     -0.0877
     46  N         34.0080   30.0820   32.8550 N.am  266  ASP266     -0.1960
     47  CA        33.7850   29.0610   31.8460 C.3   266  ASP266      0.1840
     48  C         34.9160   29.2110   30.8310 C.2   266  ASP266      0.2622
     49  O         35.0650   30.2590   30.2130 O.2   266  ASP266     -0.2715
     50  CB        32.4340   29.2800   31.1610 C.3   266  ASP266      0.1450
     51  CG        32.0680   28.1470   30.2180 C.2   266  ASP266      0.3671
     52  OD1       31.2370   27.2940   30.6010 O.co2 266  ASP266     -0.2456
     53  OD2       32.6240   28.1050   29.0990 O.co2 266  ASP266     -0.2456
     54  N         35.7280   28.1740   30.6720 N.am  267  ASN267     -0.1958
     55  CA        36.8320   28.2390   29.7270 C.3   267  ASN267      0.1819
     56  C         37.7830   29.3830   30.0110 C.2   267  ASN267      0.2621
     57  O         38.2020   30.0910   29.0970 O.2   267  ASN267     -0.2715
     58  CB        36.3010   28.3750   28.3050 C.3   267  ASN267      0.1195
     59  CG        36.1360   27.0490   27.6360 C.2   267  ASN267      0.2630
     60  OD1       37.0950   26.4900   27.1060 O.2   267  ASN267     -0.2716
     61  ND2       34.9240   26.5130   27.6800 N.am  267  ASN267     -0.0877
     62  N         38.1130   29.5710   31.2810 N.am  268  PHE268     -0.1974
     63  CA        39.0400   30.6220   31.6570 C.3   268  PHE268      0.1639
     64  C         39.7350   30.2340   32.9460 C.2   268  PHE268      0.2290
     65  O         39.0890   29.9170   33.9430 O.2   268  PHE268     -0.2864
     66  CB        38.3220   31.9540   31.8540 C.3   268  PHE268      0.0560
     67  CG        39.2570   33.1020   32.0980 C.ar  268  PHE268     -0.0200
     68  CD1       40.0350   33.6120   31.0660 C.ar  268  PHE268     -0.0042
     69  CD2       39.3960   33.6410   33.3700 C.ar  268  PHE268     -0.0042
     70  CE1       40.9450   34.6450   31.2970 C.ar  268  PHE268     -0.0003
     71  CE2       40.3030   34.6760   33.6150 C.ar  268  PHE268     -0.0003
     72  CZ        41.0790   35.1780   32.5770 C.ar  268  PHE268     -0.0000
     73  N         39.0090   17.1580   32.9240 N.3   313  ASP313     -0.1239
     74  CA        39.9530   18.2120   32.5820 C.3   313  ASP313      0.1674
     75  C         41.0790   18.1490   33.6040 C.2   313  ASP313      0.2266
     76  O         41.2310   17.1380   34.2830 O.2   313  ASP313     -0.2867
     77  CB        39.3300   19.6070   32.5600 C.3   313  ASP313      0.1410
     78  CG        40.0710   20.5350   31.6040 C.2   313  ASP313      0.3668
     79  OD1       39.9140   20.3830   30.3740 O.co2 313  ASP313     -0.2456
     80  OD2       40.8340   21.3950   32.0770 O.co2 313  ASP313     -0.2456
     81  N         41.4220   20.0870   36.3060 N.3   315  HIS315     -0.1241
     82  CA        41.0430   20.5840   37.6260 C.3   315  HIS315      0.1621
     83  C         41.3940   19.6310   38.7690 C.2   315  HIS315      0.2264
     84  O         41.7950   20.0700   39.8450 O.2   315  HIS315     -0.2867
     85  CB        39.5590   20.9440   37.6180 C.3   315  HIS315      0.0745
     86  CG        39.1770   21.8260   36.4670 C.ar  315  HIS315      0.0817
     87  ND1       37.8840   21.9490   36.0140 N.ar  315  HIS315     -0.2268
     88  CD2       39.9340   22.6090   35.6590 C.ar  315  HIS315      0.1154
     89  CE1       37.8570   22.7670   34.9740 C.ar  315  HIS315      0.1986
     90  NE2       39.0890   23.1810   34.7400 N.ar  315  HIS315     -0.2212
     91  N         39.0950   19.3170   27.6970 N.3   351  HIS351     -0.1226
     92  CA        37.8780   19.9530   27.2100 C.3   351  HIS351      0.1752
     93  C         38.0990   21.3240   26.5850 C.2   351  HIS351      0.2596
     94  O         37.1520   22.0970   26.4700 O.2   351  HIS351     -0.2718
     95  CB        36.8700   20.1250   28.3560 C.3   351  HIS351      0.0759
     96  CG        36.5010   18.8510   29.0490 C.ar  351  HIS351      0.0818
     97  ND1       35.3350   18.1680   28.7780 N.ar  351  HIS351     -0.2268
     98  CD2       37.1220   18.1610   30.0350 C.ar  351  HIS351      0.1154
     99  CE1       35.2490   17.1160   29.5730 C.ar  351  HIS351      0.1986
    100  NE2       36.3200   17.0890   30.3460 N.ar  351  HIS351     -0.2212
    101  N         39.3270   21.6420   26.1880 N.am  352  THR352     -0.1953
    102  CA        39.5750   22.9570   25.5990 C.3   352  THR352      0.1897
    103  C         40.9790   23.1080   25.0280 C.2   352  THR352      0.2313
    104  O         41.9060   22.4360   25.4720 O.2   352  THR352     -0.2863
    105  CB        39.3870   24.0760   26.6530 C.3   352  THR352      0.1794
    106  OG1       39.4340   25.3540   26.0140 O.3   352  THR352     -0.2208
    107  CG2       40.4980   24.0160   27.7020 C.3   352  THR352      0.0378
    108  N         42.4330   29.1350   28.9930 N.3   357  ALA357     -0.1245
    109  CA        41.6730   28.1870   29.8060 C.3   357  ALA357      0.1562
    110  C         42.5360   27.0800   30.4090 C.2   357  ALA357      0.2260
    111  O         42.1050   26.3830   31.3310 O.2   357  ALA357     -0.2867
    112  CB        40.5520   27.5730   28.9700 C.3   357  ALA357      0.0290
    113  N         36.9710   15.5870   23.2300 N.3   429  VAL429     -0.1245
    114  CA        35.5350   15.3690   23.3660 C.3   429  VAL429      0.1561
    115  C         34.6890   15.4550   22.1040 C.2   429  VAL429      0.2260
    116  O         33.4620   15.5190   22.1700 O.2   429  VAL429     -0.2867
    117  CB        34.9750   16.3150   24.4460 C.3   429  VAL429      0.0252
    118  CG1       35.4960   15.8840   25.8080 C.3   429  VAL429      0.0019
    119  CG2       35.4190   17.7530   24.1690 C.3   429  VAL429      0.0019
    120  N         31.2770   13.7100   22.9300 N.3   458  ASN458     -0.1240
    121  CA        30.3090   13.9700   23.9850 C.3   458  ASN458      0.1653
    122  C         28.9040   13.5080   23.6200 C.2   458  ASN458      0.2266
    123  O         28.6170   13.1620   22.4760 O.2   458  ASN458     -0.2867
    124  CB        30.2770   15.4720   24.3110 C.3   458  ASN458      0.1155
    125  CG        31.4450   15.9100   25.1950 C.2   458  ASN458      0.2627
    126  OD1       31.6890   17.1080   25.3900 O.2   458  ASN458     -0.2716
    127  ND2       32.1580   14.9410   25.7420 N.am  458  ASN458     -0.0877
    128  N         34.4940   33.5600   22.0410 N.3   547  TYR547     -0.1227
    129  CA        34.6590   32.4880   21.0670 C.3   547  TYR547      0.1736
    130  C         33.3450   31.8810   20.6010 C.2   547  TYR547      0.2595
    131  O         33.2780   31.3320   19.5090 O.2   547  TYR547     -0.2718
    132  CB        35.6160   31.4230   21.6210 C.3   547  TYR547      0.0548
    133  CG        34.9940   30.3100   22.4370 C.ar  547  TYR547     -0.0200
    134  CD1       34.3560   29.2360   21.8140 C.ar  547  TYR547     -0.0009
    135  CD2       35.0770   30.3090   23.8300 C.ar  547  TYR547     -0.0009
    136  CE1       33.8200   28.1870   22.5590 C.ar  547  TYR547      0.0417
    137  CE2       34.5450   29.2640   24.5850 C.ar  547  TYR547      0.0417
    138  CZ        33.9210   28.2080   23.9480 C.ar  547  TYR547      0.1957
    139  OH        33.4130   27.1770   24.7110 O.3   547  TYR547     -0.2866
    140  N         32.3020   31.9980   21.4160 N.am  548  LYS548     -0.1980
    141  CA        30.9970   31.4550   21.0490 C.3   548  LYS548      0.1596
    142  C         30.2850   32.4090   20.0880 C.2   548  LYS548      0.2287
    143  O         29.2520   32.0780   19.5070 O.2   548  LYS548     -0.2864
    144  CB        30.1480   31.2050   22.2960 C.3   548  LYS548      0.0298
    145  CG        30.6830   30.0700   23.1800 C.3   548  LYS548      0.0038
    146  CD        29.8430   29.8970   24.4330 C.3   548  LYS548      0.0206
    147  CE        30.4260   28.8450   25.3710 C.3   548  LYS548      0.1093
    148  NZ        30.2860   27.4510   24.8540 N.3   548  LYS548     -0.1314
    149  N         37.4150   26.2720   18.1440 N.3   645  THR645     -0.1203
    150  CA        37.3770   26.7730   19.5130 C.3   645  THR645      0.1994
    151  C         36.4180   26.0510   20.4590 C.2   645  THR645      0.2618
    152  O         36.7050   25.9310   21.6500 O.2   645  THR645     -0.2717
    153  CB        37.0620   28.2780   19.5240 C.3   645  THR645      0.1784
    154  OG1       35.7530   28.5020   18.9920 O.3   645  THR645     -0.2211
    155  CG2       38.0710   29.0260   18.6540 C.3   645  THR645      0.0376
    156  N         35.2820   25.5790   19.9470 N.am  646  GLU646     -0.1965
    157  CA        34.3260   24.8590   20.7920 C.3   646  GLU646      0.1733
    158  C         34.7330   23.3860   20.7620 C.2   646  GLU646      0.2616
    159  O         34.4640   22.6970   19.7860 O.2   646  GLU646     -0.2715
    160  CB        32.9040   25.0150   20.2450 C.3   646  GLU646      0.0429
    161  CG        31.7920   24.5710   21.2010 C.3   646  GLU646      0.1163
    162  CD        31.6600   25.4720   22.4230 C.2   646  GLU646      0.3649
    163  OE1       32.3560   25.2240   23.4320 O.co2 646  GLU646     -0.2457
    164  OE2       30.8700   26.4410   22.3720 O.co2 646  GLU646     -0.2457
    165  N         35.3810   22.9170   21.8280 N.am  647  ALA647     -0.1963
    166  CA        35.8470   21.5310   21.9020 C.3   647  ALA647      0.1728
    167  C         34.8020   20.5510   21.3810 C.2   647  ALA647      0.2617
    168  O         35.0980   19.6870   20.5530 O.2   647  ALA647     -0.2715
    169  CB        36.2270   21.1810   23.3370 C.3   647  ALA647      0.0334
    170  N         33.5760   20.6870   21.8670 N.am  648  SER648     -0.1936
    171  CA        32.5040   19.8200   21.4220 C.3   648  SER648      0.2055
    172  C         31.1880   20.5600   21.3440 C.2   648  SER648      0.2644
    173  O         30.5920   20.6940   20.2700 O.2   648  SER648     -0.2714
    174  CB        32.3330   18.6370   22.3740 C.3   648  SER648      0.2130
    175  OG        31.1450   17.9260   22.0620 O.3   648  SER648     -0.2179
    176  N         30.7590   21.0670   22.4950 N.am  649  GLY649     -0.1939
    177  CA        29.4740   21.7280   22.5750 C.3   649  GLY649      0.2014
    178  C         28.5230   20.5900   22.9170 C.2   649  GLY649      0.2639
    179  O         28.7780   19.4470   22.5330 O.2   649  GLY649     -0.2714
    180  N         27.4770   20.8660   23.6830 N.am  650  THR650     -0.1950
    181  CA        26.5020   19.8330   24.0270 C.3   650  THR650      0.1897
    182  C         25.1110   20.4150   23.8740 C.2   650  THR650      0.2313
    183  O         24.1390   19.6820   23.6550 O.2   650  THR650     -0.2863
    184  CB        26.6880   19.2880   25.4550 C.3   650  THR650      0.1794
    185  OG1       26.7410   20.3720   26.3860 O.3   650  THR650     -0.2208
    186  CG2       27.9640   18.4670   25.5370 C.3   650  THR650      0.0378
@<TRIPOS>BOND
     1   149   150    1
     2   155   153    1
     3   154   153    1
     4   143   142    2
     5   131   130    2
     6   150   153    1
     7   150   151    1
     8   159   158    2
     9   156   151   am
    10   156   157    1
    11   142   141    1
    12   160   157    1
    13   160   161    1
    14   173   172    2
    15   151   152    2
    16   168   167    2
    17   130   129    1
    18   130   140   am
    19   158   157    1
    20   158   165   am
    21   141   140    1
    22   141   144    1
    23   129   132    1
    24   129   128    1
    25   161   162    1
    26   172   171    1
    27   172   176   am
    28   167   170   am
    29   167   166    1
    30   171   170    1
    31   171   174    1
    32   132   133    1
    33   134   133   ar
    34   134   136   ar
    35   165   166    1
    36   166   169    1
    37   175   174    1
    38   115   116    2
    39   115   114    1
    40   144   145    1
    41   164   162   ar
    42   162   163   ar
    43   133   135   ar
    44   123   122    2
    45   176   177    1
    46   179   178    2
    47   136   138   ar
    48   177   178    1
    49   178   180   am
    50   120   121    1
    51   145   146    1
    52   113   114    1
    53   114   117    1
    54   122   121    1
    55   183   182    2
    56   180   181    1
    57   135   137   ar
    58   182   181    1
    59   138   137   ar
    60   138   139    1
    61   121   124    1
    62   181   184    1
    63   119   117    1
    64   124   125    1
    65   146   147    1
    66   117   118    1
    67   148   147    1
    68   103   104    2
    69   103   102    1
    70   125   126    2
    71   125   127   am
    72   184   186    1
    73   184   185    1
    74   102   101    1
    75   102   105    1
    76   106   105    1
    77   101    93   am
    78    94    93    2
    79    93    92    1
    80   105   107    1
    81    60    59    2
    82    92    91    1
    83    92    95    1
    84    59    61   am
    85    59    58    1
    86    36    35    1
    87    58    55    1
    88    95    96    1
    89    97    96   ar
    90    97    99   ar
    91   112   109    1
    92   108   109    1
    93    96    98   ar
    94    57    56    2
    95    53    51   ar
    96    37    35    1
    97    19    18    1
    98    19    20    1
    99    35    34    1
   100    99   100   ar
   101    55    56    1
   102    55    54    1
   103   109   110    1
   104    56    62   am
   105    98   100   ar
   106    21    20    2
   107    34    31    1
   108    20    22   am
   109    49    48    2
   110    51    52   ar
   111    51    50    1
   112    79    78   ar
   113   110   111    2
   114    54    48   am
   115    22    23    1
   116    48    47    1
   117    31    30    1
   118    31    32    1
   119    68    70   ar
   120    68    67   ar
   121    50    47    1
   122    62    63    1
   123    70    72   ar
   124    23    26    1
   125    23    24    1
   126    78    80   ar
   127    78    77    1
   128    63    66    1
   129    63    64    1
   130    47    46    1
   131    66    67    1
   132    33    32    2
   133    28    27    1
   134    26    27    1
   135    67    69   ar
   136    77    74    1
   137    72    71   ar
   138    74    73    1
   139    74    75    1
   140    24    25    2
   141    27    29    1
   142    46    40   am
   143    64    65    2
   144    13    12    2
   145    69    71   ar
   146    75    76    2
   147    12    11    1
   148    40    41    2
   149    40    39    1
   150    14    11    1
   151    14    15    1
   152    90    89   ar
   153    90    88   ar
   154    89    87   ar
   155    11    10    1
   156    39    42    1
   157    39    38    1
   158    42    43    1
   159    88    86   ar
   160    44    43    2
   161    15    16    2
   162    15    17   am
   163     9     7   ar
   164    87    86   ar
   165    43    45   am
   166    81    82    1
   167    86    85    1
   168     8     7   ar
   169     7     6    1
   170     5     6    1
   171     5     2    1
   172     4     3    2
   173    85    82    1
   174    82    83    1
   175     3     2    1
   176     2     1    1
   177    83    84    2
