@<TRIPOS>MOLECULE
tmp/1xkxA00.pdb
 104 100 0 0 0
SMALL
GASTEIGER

@<TRIPOS>ATOM
      1  N         47.2440   20.8710   54.3830 N.3   191  PHE191     -0.1227
      2  CA        47.7140   22.0070   53.5930 C.3   191  PHE191      0.1736
      3  C         48.9580   22.6100   54.2430 C.2   191  PHE191      0.2595
      4  O         49.1850   22.4440   55.4450 O.2   191  PHE191     -0.2718
      5  CB        46.6470   23.1040   53.4880 C.3   191  PHE191      0.0547
      6  CG        45.4720   22.7380   52.6280 C.ar  191  PHE191     -0.0202
      7  CD1       44.2960   22.2680   53.2000 C.ar  191  PHE191     -0.0042
      8  CD2       45.5360   22.8850   51.2440 C.ar  191  PHE191     -0.0042
      9  CE1       43.1930   21.9490   52.4030 C.ar  191  PHE191     -0.0003
     10  CE2       44.4380   22.5670   50.4400 C.ar  191  PHE191     -0.0003
     11  CZ        43.2680   22.1020   51.0240 C.ar  191  PHE191     -0.0000
     12  N         49.7530   23.3080   53.4370 N.am  192  TYR192     -0.1976
     13  CA        50.9690   23.9680   53.9060 C.3   192  TYR192      0.1639
     14  C         51.9980   22.9850   54.4590 C.2   192  TYR192      0.2290
     15  O         52.2780   21.9590   53.8380 O.2   192  TYR192     -0.2864
     16  CB        50.5900   25.0220   54.9540 C.3   192  TYR192      0.0560
     17  CG        49.6600   26.0770   54.3890 C.ar  192  TYR192     -0.0198
     18  CD1       50.1130   26.9920   53.4380 C.ar  192  TYR192     -0.0009
     19  CD2       48.3130   26.1220   54.7550 C.ar  192  TYR192     -0.0009
     20  CE1       49.2530   27.9260   52.8620 C.ar  192  TYR192      0.0417
     21  CE2       47.4440   27.0480   54.1850 C.ar  192  TYR192      0.0417
     22  CZ        47.9180   27.9460   53.2390 C.ar  192  TYR192      0.1957
     23  OH        47.0570   28.8570   52.6600 O.3   192  TYR192     -0.2866
     24  N         48.3930   22.2460   58.1810 N.3   208  GLN208     -0.1231
     25  CA        47.1600   22.7910   58.7250 C.3   208  GLN208      0.1698
     26  C         46.1090   21.8210   58.2010 C.2   208  GLN208      0.2592
     27  O         46.1380   21.4320   57.0330 O.2   208  GLN208     -0.2718
     28  CB        46.9130   24.2110   58.2160 C.3   208  GLN208      0.0381
     29  CG        47.9040   25.2220   58.7770 C.3   208  GLN208      0.0905
     30  CD        47.5420   26.6540   58.4470 C.2   208  GLN208      0.2608
     31  OE1       46.4620   27.1280   58.7980 O.2   208  GLN208     -0.2717
     32  NE2       48.4490   27.3570   57.7730 N.am  208  GLN208     -0.0878
     33  N         45.1900   21.4240   59.0690 N.am  209  VAL209     -0.1966
     34  CA        44.1810   20.4440   58.7000 C.3   209  VAL209      0.1727
     35  C         42.7500   20.9460   58.5580 C.2   209  VAL209      0.2616
     36  O         42.2700   21.7310   59.3730 O.2   209  VAL209     -0.2715
     37  CB        44.1780   19.2810   59.7320 C.3   209  VAL209      0.0290
     38  CG1       43.0860   18.2710   59.4020 C.3   209  VAL209      0.0023
     39  CG2       45.5380   18.6030   59.7470 C.3   209  VAL209      0.0023
     40  N         42.0800   20.4780   57.5070 N.am  210  VAL210     -0.1977
     41  CA        40.6740   20.7840   57.2640 C.3   210  VAL210      0.1596
     42  C         39.9890   19.4450   57.0980 C.2   210  VAL210      0.2287
     43  O         40.5430   18.5350   56.4790 O.2   210  VAL210     -0.2864
     44  CB        40.4140   21.5440   55.9580 C.3   210  VAL210      0.0276
     45  CG1       38.9240   21.6280   55.6980 C.3   210  VAL210      0.0022
     46  CG2       40.9010   22.9030   56.0720 C.3   210  VAL210      0.0022
     47  N         40.7820   23.6330   66.3050 N.3   241  PHE241     -0.1241
     48  CA        41.2100   24.6830   65.3750 C.3   241  PHE241      0.1605
     49  C         41.4150   26.0780   65.9760 C.2   241  PHE241      0.2264
     50  O         40.5070   26.6520   66.5950 O.2   241  PHE241     -0.2867
     51  CB        40.2020   24.7960   64.2330 C.3   241  PHE241      0.0534
     52  CG        40.6640   25.6570   63.0910 C.ar  241  PHE241     -0.0203
     53  CD1       41.6540   25.2090   62.2140 C.ar  241  PHE241     -0.0042
     54  CD2       40.1430   26.9360   62.9180 C.ar  241  PHE241     -0.0042
     55  CE1       42.1250   26.0260   61.1830 C.ar  241  PHE241     -0.0003
     56  CE2       40.6020   27.7650   61.8940 C.ar  241  PHE241     -0.0003
     57  CZ        41.5990   27.3120   61.0220 C.ar  241  PHE241     -0.0000
     58  N         37.7690   30.6510   57.8600 N.3   254  LEU254     -0.1231
     59  CA        38.9060   30.5930   56.9490 C.3   254  LEU254      0.1693
     60  C         39.0810   29.2280   56.2960 C.2   254  LEU254      0.2591
     61  O         39.2260   29.1280   55.0780 O.2   254  LEU254     -0.2718
     62  CB        40.1910   30.9730   57.6880 C.3   254  LEU254      0.0284
     63  CG        40.5280   32.4630   57.7970 C.3   254  LEU254      0.0019
     64  CD1       39.2900   33.2760   58.1600 C.3   254  LEU254      0.0001
     65  CD2       41.6220   32.6410   58.8370 C.3   254  LEU254      0.0001
     66  N         39.0710   28.1760   57.1060 N.am  255  ALA255     -0.1980
     67  CA        39.2370   26.8330   56.5770 C.3   255  ALA255      0.1597
     68  C         38.0000   26.3630   55.8210 C.2   255  ALA255      0.2287
     69  O         38.1030   25.6810   54.8000 O.2   255  ALA255     -0.2864
     70  CB        39.5540   25.8590   57.7100 C.3   255  ALA255      0.0319
     71  N         36.8170   26.9970   51.8430 N.3   258  ILE258     -0.1245
     72  CA        37.2270   26.1620   50.7210 C.3   258  ILE258      0.1561
     73  C         36.0410   25.6520   49.8990 C.2   258  ILE258      0.2260
     74  O         36.1000   25.6210   48.6680 O.2   258  ILE258     -0.2867
     75  CB        38.0780   24.9680   51.2150 C.3   258  ILE258      0.0252
     76  CG1       39.4200   25.4900   51.7400 C.3   258  ILE258      0.0019
     77  CG2       38.2970   23.9610   50.0830 C.3   258  ILE258      0.0019
     78  CD1       40.3060   24.4220   52.3530 C.3   258  ILE258      0.0001
     79  N         44.7320   31.2210   44.8290 N.3   273  GLU273     -0.1231
     80  CA        45.0330   30.2310   45.8540 C.3   273  GLU273      0.1699
     81  C         43.8020   29.4530   46.3140 C.2   273  GLU273      0.2592
     82  O         43.8610   28.2370   46.4950 O.2   273  GLU273     -0.2718
     83  CB        45.6700   30.9000   47.0710 C.3   273  GLU273      0.0402
     84  CG        46.2700   29.9020   48.0450 C.3   273  GLU273      0.1161
     85  CD        46.6650   30.5250   49.3700 C.2   273  GLU273      0.3649
     86  OE1       47.5580   29.9610   50.0360 O.co2 273  GLU273     -0.2457
     87  OE2       46.0810   31.5640   49.7510 O.co2 273  GLU273     -0.2457
     88  N         42.6900   30.1510   46.5180 N.am  274  LEU274     -0.1980
     89  CA        41.4690   29.4920   46.9730 C.3   274  LEU274      0.1596
     90  C         41.0630   28.3770   46.0080 C.2   274  LEU274      0.2287
     91  O         40.6500   27.2940   46.4310 O.2   274  LEU274     -0.2864
     92  CB        40.3370   30.5120   47.1060 C.3   274  LEU274      0.0297
     93  CG        38.9980   29.9990   47.6440 C.3   274  LEU274      0.0022
     94  CD1       39.2090   29.3600   49.0070 C.3   274  LEU274      0.0001
     95  CD2       37.9990   31.1620   47.7350 C.3   274  LEU274      0.0001
     96  N         43.1980   25.3980   46.4470 N.3   277  LYS277     -0.1245
     97  CA        42.8140   24.6850   47.6570 C.3   277  LYS277      0.1561
     98  C         41.6150   23.7880   47.3740 C.2   277  LYS277      0.2260
     99  O         41.5490   22.6570   47.8550 O.2   277  LYS277     -0.2867
    100  CB        42.4630   25.6640   48.7740 C.3   277  LYS277      0.0271
    101  CG        43.6660   26.3660   49.3900 C.3   277  LYS277      0.0035
    102  CD        43.2240   27.3010   50.5040 C.3   277  LYS277      0.0206
    103  CE        44.4120   27.9420   51.1970 C.3   277  LYS277      0.1093
    104  NZ        43.9470   28.8510   52.2750 N.3   277  LYS277     -0.1314
@<TRIPOS>BOND
     1    79    80    1
     2    80    81    1
     3    80    83    1
     4    90    91    2
     5    90    89    1
     6    81    82    2
     7    81    88   am
     8    96    97    1
     9    88    89    1
    10    89    92    1
    11    83    84    1
    12    92    93    1
    13    98    97    1
    14    98    99    2
    15    93    95    1
    16    93    94    1
    17    97   100    1
    18    84    85    1
    19    74    73    2
    20   100   101    1
    21    85    87   ar
    22    85    86   ar
    23   101   102    1
    24    73    72    1
    25    77    75    1
    26    10    11   ar
    27    10     8   ar
    28   102   103    1
    29    72    75    1
    30    72    71    1
    31    11     9   ar
    32   103   104    1
    33    75    76    1
    34     8     6   ar
    35    76    78    1
    36     9     7   ar
    37     6     7   ar
    38     6     5    1
    39    23    22    1
    40    20    22   ar
    41    20    18   ar
    42    22    21   ar
    43    12    13    1
    44    12     3   am
    45    18    17   ar
    46     5     2    1
    47     2     3    1
    48     2     1    1
    49    15    14    2
    50    13    14    1
    51    13    16    1
    52    21    19   ar
    53     3     4    2
    54    17    19   ar
    55    17    16    1
    56    69    68    2
    57    61    60    2
    58    45    44    1
    59    68    67    1
    60    44    46    1
    61    44    41    1
    62    60    59    1
    63    60    66   am
    64    43    42    2
    65    67    66    1
    66    67    70    1
    67    59    62    1
    68    59    58    1
    69    27    26    2
    70    42    41    1
    71    41    40    1
    72    40    35   am
    73    62    63    1
    74    32    30   am
    75    63    64    1
    76    63    65    1
    77    24    25    1
    78    26    25    1
    79    26    33   am
    80    28    25    1
    81    28    29    1
    82    30    29    1
    83    30    31    2
    84    35    34    1
    85    35    36    2
    86    34    33    1
    87    34    37    1
    88    38    37    1
    89    37    39    1
    90    57    55   ar
    91    57    56   ar
    92    55    53   ar
    93    56    54   ar
    94    53    52   ar
    95    54    52   ar
    96    52    51    1
    97    51    48    1
    98    48    49    1
    99    48    47    1
   100    49    50    2
