@<TRIPOS>MOLECULE
tmp/1xkxA01.pdb
 116 116 0 0 0
SMALL
GASTEIGER

@<TRIPOS>ATOM
      1  N          6.9060   14.9020   58.7340 N.3    27  THR27      -0.1218
      2  CA         8.1550   15.4680   58.2510 C.3    27  THR27       0.1862
      3  C          8.1770   16.9850   58.1670 C.2    27  THR27       0.2287
      4  O          9.1410   17.6130   58.5920 O.2    27  THR27      -0.2866
      5  CB         8.5120   14.8730   56.8820 C.3    27  THR27       0.1770
      6  OG1        8.5800   13.4460   57.0000 O.3    27  THR27      -0.2211
      7  CG2        9.8610   15.3910   56.4040 C.3    27  THR27       0.0375
      8  N          9.9610   14.0700   49.4690 N.3    46  HIS46      -0.1241
      9  CA        10.2550   13.0050   50.4230 C.3    46  HIS46       0.1621
     10  C          9.5520   11.7100   50.0560 C.2    46  HIS46       0.2264
     11  O         10.0810   10.6290   50.2730 O.2    46  HIS46      -0.2867
     12  CB         9.8510   13.4080   51.8430 C.3    46  HIS46       0.0745
     13  CG        10.8240   14.3320   52.5010 C.ar   46  HIS46       0.0817
     14  ND1       10.8040   15.6960   52.3050 N.ar   46  HIS46      -0.2268
     15  CD2       11.8820   14.0820   53.3080 C.ar   46  HIS46       0.1154
     16  CE1       11.8070   16.2470   52.9630 C.ar   46  HIS46       0.1986
     17  NE2       12.4770   15.2900   53.5800 N.ar   46  HIS46      -0.2212
     18  N         11.5320   10.2900   47.2550 N.3    49  ARG49      -0.1245
     19  CA        12.8290    9.9040   47.7880 C.3    49  ARG49       0.1563
     20  C         12.7780    8.5440   48.4640 C.2    49  ARG49       0.2260
     21  O         13.7010    7.7420   48.3310 O.2    49  ARG49      -0.2867
     22  CB        13.3170   10.9520   48.7890 C.3    49  ARG49       0.0307
     23  CG        14.7410   10.7240   49.2590 C.3    49  ARG49       0.0489
     24  CD        15.1360   11.7720   50.2860 C.3    49  ARG49       0.2205
     25  NE        14.6390   11.4410   51.6190 N.pl3  49  ARG49      -0.0865
     26  CZ        14.7850   12.2200   52.6870 C.cat  49  ARG49       0.5346
     27  NH1       15.4120   13.3860   52.5810 N.pl3  49  ARG49       0.1354
     28  NH2       14.3240   11.8240   53.8680 N.pl3  49  ARG49       0.1354
     29  N         13.5940    5.6330   46.4620 N.3    52  LEU52      -0.1231
     30  CA        14.9920    5.5100   46.0520 C.3    52  LEU52       0.1693
     31  C         15.8610    4.7300   47.0290 C.2    52  LEU52       0.2591
     32  O         16.7090    3.9330   46.6200 O.2    52  LEU52      -0.2718
     33  CB        15.6200    6.8960   45.8890 C.3    52  LEU52       0.0284
     34  CG        15.4910    7.6510   44.5730 C.3    52  LEU52       0.0019
     35  CD1       16.0400    9.0580   44.7570 C.3    52  LEU52       0.0001
     36  CD2       16.2510    6.9100   43.4770 C.3    52  LEU52       0.0001
     37  N         15.6590    4.9740   48.3200 N.am   53  VAL53      -0.1980
     38  CA        16.4710    4.3450   49.3560 C.3    53  VAL53       0.1595
     39  C         16.6040    2.8330   49.2820 C.2    53  VAL53       0.2287
     40  O         17.7110    2.3060   49.3810 O.2    53  VAL53      -0.2864
     41  CB        15.9810    4.7500   50.7700 C.3    53  VAL53       0.0276
     42  CG1       16.0880    6.2590   50.9350 C.3    53  VAL53       0.0022
     43  CG2       14.5560    4.2980   50.9800 C.3    53  VAL53       0.0022
     44  N         18.8240    2.0940   46.5240 N.3    56  TRP56      -0.1241
     45  CA        20.1450    2.6480   46.8030 C.3    56  TRP56       0.1605
     46  C         20.9270    1.6940   47.7050 C.2    56  TRP56       0.2264
     47  O         22.0910    1.3830   47.4460 O.2    56  TRP56      -0.2867
     48  CB        19.9880    4.0190   47.4790 C.3    56  TRP56       0.0550
     49  CG        21.2110    4.9080   47.4400 C.ar   56  TRP56       0.0003
     50  CD1       22.3630    4.7030   46.7280 C.ar   56  TRP56       0.0946
     51  CD2       21.3640    6.1800   48.0900 C.ar   56  TRP56       0.0152
     52  NE1       23.2170    5.7690   46.8900 N.ar   56  TRP56      -0.2442
     53  CE2       22.6310    6.6900   47.7200 C.ar   56  TRP56       0.0810
     54  CE3       20.5500    6.9400   48.9460 C.ar   56  TRP56       0.0012
     55  CZ2       23.1070    7.9260   48.1760 C.ar   56  TRP56       0.0191
     56  CZ3       21.0240    8.1760   49.4020 C.ar   56  TRP56       0.0001
     57  CH2       22.2940    8.6530   49.0120 C.ar   56  TRP56       0.0015
     58  N         18.1600   20.6570   51.3630 N.3   176  ASN176     -0.1226
     59  CA        18.2460   19.7980   50.1880 C.3   176  ASN176      0.1770
     60  C         17.8340   18.3820   50.5830 C.2   176  ASN176      0.2439
     61  O         18.5980   17.6610   51.2200 O.2   176  ASN176     -0.2733
     62  CB        19.6820   19.8120   49.6470 C.3   176  ASN176      0.1168
     63  CG        19.8690   18.9020   48.4550 C.2   176  ASN176      0.2627
     64  OD1       18.9010   18.4120   47.8720 O.2   176  ASN176     -0.2716
     65  ND2       21.1250   18.6810   48.0740 N.am  176  ASN176     -0.0877
     66  N         16.6140   17.9690   50.2050 N.am  177  PRO177     -0.2718
     67  CA        16.1070   16.6350   50.5340 C.3   177  PRO177      0.1535
     68  C         16.8060   15.4840   49.8200 C.2   177  PRO177      0.2599
     69  O         16.6770   14.3330   50.2230 O.2   177  PRO177     -0.2715
     70  CB        14.6240   16.7330   50.1660 C.3   177  PRO177      0.0310
     71  CG        14.6420   17.6520   48.9870 C.3   177  PRO177      0.0237
     72  CD        15.6170   18.7320   49.4290 C.3   177  PRO177      0.0939
     73  N         17.5680   15.7950   48.7800 N.am  178  TRP178     -0.1960
     74  CA        18.2350   14.7550   48.0110 C.3   178  TRP178      0.1771
     75  C         19.6080   14.3310   48.5100 C.2   178  TRP178      0.2620
     76  O         20.1270   13.3060   48.0740 O.2   178  TRP178     -0.2715
     77  CB        18.3340   15.1900   46.5480 C.3   178  TRP178      0.0590
     78  CG        17.0240   15.6480   46.0050 C.ar  178  TRP178      0.0006
     79  CD1       16.6660   16.9280   45.6820 C.ar  178  TRP178      0.0946
     80  CD2       15.8680   14.8380   45.7780 C.ar  178  TRP178      0.0152
     81  NE1       15.3540   16.9630   45.2710 N.ar  178  TRP178     -0.2442
     82  CE2       14.8410   15.6930   45.3210 C.ar  178  TRP178      0.0810
     83  CE3       15.5990   13.4700   45.9190 C.ar  178  TRP178      0.0012
     84  CZ2       13.5600   15.2230   45.0030 C.ar  178  TRP178      0.0191
     85  CZ3       14.3280   13.0010   45.6040 C.ar  178  TRP178      0.0001
     86  CH2       13.3240   13.8780   45.1500 C.ar  178  TRP178      0.0015
     87  N         20.2000   15.0940   49.4220 N.am  179  GLU179     -0.1963
     88  CA        21.5210   14.7330   49.9190 C.3   179  GLU179      0.1733
     89  C         21.4600   14.0810   51.2910 C.2   179  GLU179      0.2616
     90  O         20.6250   14.4340   52.1220 O.2   179  GLU179     -0.2715
     91  CB        22.4140   15.9700   50.0090 C.3   179  GLU179      0.0429
     92  CG        21.9940   16.9390   51.1040 C.3   179  GLU179      0.1163
     93  CD        22.8050   18.2180   51.1030 C.2   179  GLU179      0.3649
     94  OE1       22.6230   19.0340   52.0320 O.co2 179  GLU179     -0.2457
     95  OE2       23.6160   18.4120   50.1740 O.co2 179  GLU179     -0.2457
     96  N         22.3470   13.1220   51.5180 N.am  180  LYS180     -0.1963
     97  CA        22.4210   12.4550   52.8080 C.3   180  LYS180      0.1728
     98  C         23.8000   12.7220   53.3810 C.2   180  LYS180      0.2616
     99  O         24.7970   12.2180   52.8650 O.2   180  LYS180     -0.2715
    100  CB        22.2260   10.9450   52.6690 C.3   180  LYS180      0.0311
    101  CG        22.3370   10.2100   53.9990 C.3   180  LYS180      0.0038
    102  CD        21.2350   10.6550   54.9470 C.3   180  LYS180      0.0206
    103  CE        21.4320   10.1080   56.3500 C.3   180  LYS180      0.1093
    104  NZ        22.5890   10.7410   57.0380 N.3   180  LYS180     -0.1314
    105  N         23.8560   13.5210   54.4400 N.am  181  ALA181     -0.1977
    106  CA        25.1230   13.8260   55.0770 C.3   181  ALA181      0.1597
    107  C         25.6730   12.5380   55.6670 C.2   181  ALA181      0.2287
    108  O         24.9280   11.7390   56.2370 O.2   181  ALA181     -0.2864
    109  CB        24.9240   14.8710   56.1720 C.3   181  ALA181      0.0319
    110  N         21.7980   10.3240   45.6660 N.3   218  PRO218     -0.2116
    111  CA        21.5020    9.1480   44.8420 C.3   218  PRO218      0.1372
    112  C         21.3740    9.4930   43.3570 C.2   218  PRO218      0.2244
    113  O         20.8330   10.5380   42.9940 O.2   218  PRO218     -0.2868
    114  CB        20.1920    8.6360   45.4410 C.3   218  PRO218      0.0268
    115  CG        19.5000    9.9130   45.8400 C.3   218  PRO218      0.0207
    116  CD        20.6270   10.7150   46.4750 C.3   218  PRO218      0.0892
@<TRIPOS>BOND
     1   113   112    2
     2   112   111    1
     3    36    34    1
     4    34    35    1
     5    34    33    1
     6   111   114    1
     7   111   110    1
     8    84    86   ar
     9    84    82   ar
    10    86    85   ar
    11    81    82   ar
    12    81    79   ar
    13    82    80   ar
    14   114   115    1
    15    85    83   ar
    16   110   116    1
    17    79    78   ar
    18    80    83   ar
    19    80    78   ar
    20   115   116    1
    21    33    30    1
    22    78    77    1
    23    30    29    1
    24    30    31    1
    25    44    45    1
    26    77    74    1
    27    32    31    2
    28    50    52   ar
    29    50    49   ar
    30    45    48    1
    31    45    46    1
    32    52    53   ar
    33    31    37   am
    34    18    19    1
    35    49    48    1
    36    49    51   ar
    37    47    46    2
    38    53    51   ar
    39    53    55   ar
    40    19    20    1
    41    19    22    1
    42    64    63    2
    43    74    75    1
    44    74    73    1
    45    76    75    2
    46    65    63   am
    47    51    54   ar
    48    55    57   ar
    49    37    38    1
    50    21    20    2
    51    63    62    1
    52    75    87   am
    53    73    68   am
    54    22    23    1
    55    54    56   ar
    56    71    72    1
    57    71    70    1
    58    57    56   ar
    59    23    24    1
    60    39    38    1
    61    39    40    2
    62    38    41    1
    63    87    88    1
    64    72    66    1
    65     8     9    1
    66    62    59    1
    67    68    69    2
    68    68    67    1
    69    88    91    1
    70    88    89    1
    71    91    92    1
    72    10    11    2
    73    10     9    1
    74    70    67    1
    75    95    93   ar
    76    59    60    1
    77    59    58    1
    78    66    67    1
    79    66    60   am
    80    24    25    1
    81     9    12    1
    82    60    61    2
    83    41    42    1
    84    41    43    1
    85    93    92    1
    86    93    94   ar
    87    89    96   am
    88    89    90    2
    89    96    97    1
    90    25    26    2
    91    12    13    1
    92    14    13   ar
    93    14    16   ar
    94    13    15   ar
    95    27    26    1
    96   100    97    1
    97   100   101    1
    98    26    28    1
    99    97    98    1
   100    99    98    2
   101    16    17   ar
   102    15    17   ar
   103    98   105   am
   104   101   102    1
   105   105   106    1
   106   102   103    1
   107   106   107    1
   108   106   109    1
   109   107   108    2
   110   103   104    1
   111     7     5    1
   112     5     6    1
   113     5     2    1
   114     3     2    1
   115     3     4    2
   116     2     1    1
