@<TRIPOS>MOLECULE
tmp/1xkzB01.pdb
 87 83 0 0 0
SMALL
GASTEIGER

@<TRIPOS>ATOM
      1  N         13.6870   -6.4130  -18.0810 N.3    68  HIS68      -0.1226
      2  CA        13.4280   -5.1650  -18.7940 C.3    68  HIS68       0.1752
      3  C         14.6610   -4.5690  -19.4620 C.2    68  HIS68       0.2596
      4  O         14.8250   -3.3500  -19.5590 O.2    68  HIS68      -0.2718
      5  CB        12.7040   -4.1530  -17.8950 C.3    68  HIS68       0.0759
      6  CG        11.3510   -4.6210  -17.4770 C.ar   68  HIS68       0.0818
      7  ND1       10.2020   -4.2750  -18.1610 N.ar   68  HIS68      -0.2268
      8  CD2       10.9590   -5.4350  -16.4660 C.ar   68  HIS68       0.1154
      9  CE1        9.1610   -4.8610  -17.5880 C.ar   68  HIS68       0.1986
     10  NE2        9.5930   -5.5690  -16.5570 N.ar   68  HIS68      -0.2212
     11  N         15.5650   -5.4560  -19.8710 N.am   69  ILE69      -0.1966
     12  CA        16.7530   -5.0050  -20.6060 C.3    69  ILE69       0.1727
     13  C         16.2280   -4.6100  -21.9830 C.2    69  ILE69       0.2616
     14  O         16.7640   -3.7060  -22.6810 O.2    69  ILE69      -0.2715
     15  CB        17.8570   -6.1200  -20.6970 C.3    69  ILE69       0.0290
     16  CG1       18.3700   -6.5130  -19.3090 C.3    69  ILE69       0.0022
     17  CG2       19.0090   -5.6820  -21.6370 C.3    69  ILE69       0.0023
     18  CD1       18.5190   -5.3800  -18.3020 C.3    69  ILE69       0.0001
     19  N         15.2420   -5.3640  -22.4370 N.am   70  ILE70      -0.1963
     20  CA        14.5290   -5.0730  -23.6670 C.3    70  ILE70       0.1727
     21  C         13.0370   -5.2030  -23.3320 C.2    70  ILE70       0.2616
     22  O         12.6620   -5.8580  -22.3570 O.2    70  ILE70      -0.2715
     23  CB        14.9020   -6.0210  -24.8450 C.3    70  ILE70       0.0290
     24  CG1       14.8340   -7.4900  -24.3870 C.3    70  ILE70       0.0022
     25  CG2       16.3360   -5.7510  -25.3080 C.3    70  ILE70       0.0023
     26  CD1       14.6840   -8.4590  -25.5790 C.3    70  ILE70       0.0001
     27  N         12.2060   -4.4750  -24.0620 N.am   71  ASN71      -0.1972
     28  CA        10.7610   -4.5170  -23.8580 C.3    71  ASN71       0.1688
     29  C         10.0480   -4.3590  -25.1860 C.2    71  ASN71       0.2292
     30  O         10.6840   -4.3360  -26.2370 O.2    71  ASN71      -0.2864
     31  CB        10.3400   -3.4650  -22.8110 C.3    71  ASN71       0.1181
     32  CG        10.6160   -2.0460  -23.2720 C.2    71  ASN71       0.2629
     33  OD1       10.4540   -1.7530  -24.4340 O.2    71  ASN71      -0.2716
     34  ND2       10.9490   -1.1410  -22.3360 N.am   71  ASN71      -0.0877
     35  N         10.9440   -0.9890  -26.9160 N.3    74  ASN74      -0.1240
     36  CA        12.3370   -0.8620  -27.3270 C.3    74  ASN74       0.1653
     37  C         13.1740   -2.1360  -27.0470 C.2    74  ASN74       0.2266
     38  O         13.5650   -2.3760  -25.9100 O.2    74  ASN74      -0.2867
     39  CB        12.9850    0.3440  -26.6080 C.3    74  ASN74       0.1155
     40  CG        14.4520    0.6370  -27.0500 C.2    74  ASN74       0.2627
     41  OD1       14.9460    0.1020  -28.0280 O.2    74  ASN74      -0.2716
     42  ND2       15.1290    1.5570  -26.3190 N.am   74  ASN74      -0.0877
     43  N         15.6340   -2.5210  -29.3440 N.3    76  ARG76      -0.1231
     44  CA        16.6620   -2.1720  -30.3150 C.3    76  ARG76       0.1694
     45  C         18.0260   -2.0290  -29.6780 C.2    76  ARG76       0.2592
     46  O         18.1340   -1.4770  -28.5930 O.2    76  ARG76      -0.2718
     47  CB        16.2260   -0.8360  -31.0710 C.3    76  ARG76       0.0321
     48  CG        14.9560   -1.1030  -31.8690 C.3    76  ARG76       0.0489
     49  CD        14.6080    0.0430  -32.8560 C.3    76  ARG76       0.2205
     50  NE        14.5980    1.3630  -32.2470 N.pl3  76  ARG76      -0.0865
     51  CZ        13.5380    1.8770  -31.6780 C.cat  76  ARG76       0.5346
     52  NH1       12.4020    1.2180  -31.6560 N.pl3  76  ARG76       0.1354
     53  NH2       13.6560    3.0070  -31.0220 N.pl3  76  ARG76       0.1354
     54  N         19.0480   -2.6110  -30.3110 N.am   77  MET77      -0.1965
     55  CA        20.4090   -2.5050  -29.8540 C.3    77  MET77       0.1736
     56  C         21.2640   -2.0360  -31.0450 C.2    77  MET77       0.2617
     57  O         21.1660   -2.5530  -32.2130 O.2    77  MET77      -0.2715
     58  CB        20.9300   -3.8240  -29.2510 C.3    77  MET77       0.0427
     59  CG        20.3390   -4.1120  -27.8820 C.3    77  MET77       0.0599
     60  SD        21.0920   -5.6360  -27.2660 S.3    77  MET77      -0.1393
     61  CE        20.6740   -5.4300  -25.6140 C.3    77  MET77       0.0692
     62  N         22.1110   -1.0500  -30.7390 N.am   78  SER78      -0.1950
     63  CA        23.0090   -0.4340  -31.7230 C.3    78  SER78       0.1924
     64  C         24.1210   -1.3770  -32.1740 C.2    78  SER78       0.2314
     65  O         24.6950   -2.1150  -31.3620 O.2    78  SER78      -0.2863
     66  CB        23.6790    0.8400  -31.0670 C.3    78  SER78       0.2116
     67  OG        24.5670    0.5300  -30.0480 O.3    78  SER78      -0.2180
     68  N         25.2400   -9.2210  -25.6070 N.3   109  ARG109     -0.1245
     69  CA        25.0890   -7.9050  -24.9430 C.3   109  ARG109      0.1563
     70  C         24.0460   -7.9970  -23.8510 C.2   109  ARG109      0.2260
     71  O         24.2320   -7.3870  -22.7890 O.2   109  ARG109     -0.2867
     72  CB        24.7770   -6.7630  -25.9240 C.3   109  ARG109      0.0307
     73  CG        24.9910   -5.3620  -25.2770 C.3   109  ARG109      0.0489
     74  CD        24.7620   -4.2530  -26.2810 C.3   109  ARG109      0.2205
     75  NE        25.6640   -4.3180  -27.4440 N.pl3 109  ARG109     -0.0865
     76  CZ        25.5360   -3.5400  -28.5310 C.cat 109  ARG109      0.5346
     77  NH1       24.5500   -2.6300  -28.6330 N.pl3 109  ARG109      0.1354
     78  NH2       26.4160   -3.6500  -29.5000 N.pl3 109  ARG109      0.1354
     79  N         24.6020   -7.9010  -19.1780 N.3   113  GLN113     -0.1245
     80  CA        23.7700   -7.0790  -18.2630 C.3   113  GLN113      0.1566
     81  C         23.0590   -7.8930  -17.1740 C.2   113  GLN113      0.2260
     82  O         22.3570   -7.3120  -16.3130 O.2   113  GLN113     -0.2867
     83  CB        22.6570   -6.3280  -19.0330 C.3   113  GLN113      0.0367
     84  CG        22.9730   -5.0000  -19.6240 C.3   113  GLN113      0.0905
     85  CD        23.4640   -5.0900  -21.0280 C.2   113  GLN113      0.2608
     86  OE1       24.6660   -5.3220  -21.2550 O.2   113  GLN113     -0.2717
     87  NE2       22.5590   -4.9260  -22.0020 N.am  113  GLN113     -0.0878
@<TRIPOS>BOND
     1    49    50    1
     2    49    48    1
     3    50    51    2
     4    57    56    2
     5    64    63    1
     6    64    65    2
     7    48    47    1
     8    63    66    1
     9    63    62    1
    10    51    52    1
    11    51    53    1
    12    47    44    1
    13    66    67    1
    14    56    62   am
    15    56    55    1
    16    44    45    1
    17    44    43    1
    18    54    55    1
    19    54    45   am
    20    55    58    1
    21    45    46    2
    22    78    76    1
    23    58    59    1
    24    77    76    1
    25    76    75    2
    26    41    40    2
    27    59    60    1
    28    75    74    1
    29    36    37    1
    30    36    35    1
    31    36    39    1
    32    60    61    1
    33    40    39    1
    34    40    42   am
    35    37    38    2
    36    74    73    1
    37    30    29    2
    38    72    73    1
    39    72    69    1
    40    68    69    1
    41    26    24    1
    42    25    23    1
    43    29    28    1
    44    69    70    1
    45    23    24    1
    46    23    20    1
    47    33    32    2
    48    27    28    1
    49    27    21   am
    50    28    31    1
    51    70    71    2
    52    20    21    1
    53    20    19    1
    54    21    22    2
    55    32    31    1
    56    32    34   am
    57    14    13    2
    58    19    13   am
    59    87    85   am
    60    13    12    1
    61    17    15    1
    62    86    85    2
    63    85    84    1
    64    15    12    1
    65    15    16    1
    66    12    11    1
    67    11     3   am
    68    84    83    1
    69     4     3    2
    70     3     2    1
    71    16    18    1
    72    79    80    1
    73    83    80    1
    74     2     1    1
    75     2     5    1
    76    80    81    1
    77     7     9   ar
    78     7     6   ar
    79     5     6    1
    80     9    10   ar
    81     6     8   ar
    82    81    82    2
    83    10     8   ar
