@<TRIPOS>MOLECULE
tmp/1xkzC00.pdb
 141 136 0 0 0
SMALL
GASTEIGER

@<TRIPOS>ATOM
      1  N          5.4140   -7.4970    7.0820 N.3    51  ASN51      -0.1225
      2  CA         5.9660   -8.8440    7.2360 C.3    51  ASN51       0.1785
      3  C          4.8670   -9.8720    7.0010 C.2    51  ASN51       0.2597
      4  O          4.2970   -9.9120    5.9070 O.2    51  ASN51      -0.2718
      5  CB         6.7040   -9.0840    8.5960 C.3    51  ASN51       0.1169
      6  CG         6.0480   -8.5630    9.8480 C.2    51  ASN51       0.2627
      7  OD1        4.9630   -9.0110   10.1920 O.2    51  ASN51      -0.2716
      8  ND2        6.6850   -7.6430   10.5590 N.am   51  ASN51      -0.0877
      9  N          4.5230  -10.6410    7.9800 N.am   52  SER52      -0.1952
     10  CA         3.5710  -11.7320    7.6900 C.3    52  SER52       0.1924
     11  C          2.1430  -11.3030    7.4550 C.2    52  SER52       0.2314
     12  O          1.3130  -12.0230    6.9530 O.2    52  SER52      -0.2863
     13  CB         3.5640  -12.7540    8.7650 C.3    52  SER52       0.2116
     14  OG         4.8340  -13.3880    8.7310 O.3    52  SER52      -0.2180
     15  N         10.8080  -24.5010   12.8530 N.3    84  PHE84      -0.1241
     16  CA         9.4900  -24.5950   13.4630 C.3    84  PHE84       0.1605
     17  C          8.9180  -25.9060   12.9500 C.2    84  PHE84       0.2264
     18  O          8.8140  -26.1220   11.7420 O.2    84  PHE84      -0.2867
     19  CB         8.6440  -23.3990   13.0540 C.3    84  PHE84       0.0534
     20  CG         8.9950  -22.0930   13.6970 C.ar   84  PHE84      -0.0203
     21  CD1        9.4620  -22.0110   15.0140 C.ar   84  PHE84      -0.0042
     22  CD2        8.8240  -20.9080   12.9580 C.ar   84  PHE84      -0.0042
     23  CE1        9.7190  -20.7830   15.5930 C.ar   84  PHE84      -0.0003
     24  CE2        9.1010  -19.6740   13.5330 C.ar   84  PHE84      -0.0003
     25  CZ         9.5430  -19.6190   14.8650 C.ar   84  PHE84      -0.0000
     26  N          6.3320  -26.2650   10.2370 N.3    87  TRP87      -0.1241
     27  CA         6.7020  -25.9580    8.8610 C.3    87  TRP87       0.1605
     28  C          7.3380  -27.1550    8.1280 C.2    87  TRP87       0.2264
     29  O          7.4470  -27.1400    6.9170 O.2    87  TRP87      -0.2867
     30  CB         7.7110  -24.8230    8.8270 C.3    87  TRP87       0.0550
     31  CG         7.3040  -23.4910    9.3760 C.ar   87  TRP87       0.0003
     32  CD1        6.2010  -23.1570   10.1030 C.ar   87  TRP87       0.0946
     33  CD2        8.0470  -22.2980    9.1920 C.ar   87  TRP87       0.0152
     34  NE1        6.2120  -21.7930   10.3940 N.ar   87  TRP87      -0.2442
     35  CE2        7.3390  -21.2490    9.8440 C.ar   87  TRP87       0.0810
     36  CE3        9.2430  -21.9930    8.5150 C.ar   87  TRP87       0.0012
     37  CZ2        7.8040  -19.9250    9.8470 C.ar   87  TRP87       0.0191
     38  CZ3        9.7040  -20.6810    8.5210 C.ar   87  TRP87       0.0001
     39  CH2        8.9880  -19.6630    9.1840 C.ar   87  TRP87       0.0015
     40  N          1.8070  -19.6630   10.1040 N.3   100  SER100     -0.1217
     41  CA         2.6040  -18.6320    9.3860 C.3   100  SER100      0.1889
     42  C          3.8720  -19.2490    8.7540 C.2   100  SER100      0.2288
     43  O          5.0260  -18.8950    9.0730 O.2   100  SER100     -0.2866
     44  CB         2.8980  -17.4440   10.3020 C.3   100  SER100      0.2089
     45  OG         3.1560  -16.2070    9.5830 O.3   100  SER100     -0.2183
     46  N          6.3300  -19.4440    6.3540 N.3   102  ASN102     -0.1240
     47  CA         6.9350  -18.5760    5.3470 C.3   102  ASN102      0.1653
     48  C          7.1640  -19.1720    3.9540 C.2   102  ASN102      0.2266
     49  O          6.7770  -18.5670    2.9430 O.2   102  ASN102     -0.2867
     50  CB         8.2810  -18.0000    5.8220 C.3   102  ASN102      0.1155
     51  CG         8.1650  -16.9520    6.9050 C.2   102  ASN102      0.2627
     52  OD1        7.1040  -16.5280    7.3200 O.2   102  ASN102     -0.2716
     53  ND2        9.3290  -16.6290    7.4810 N.am  102  ASN102     -0.0877
     54  N          9.1560   -8.5990    3.6350 N.3   139  MET139     -0.1230
     55  CA         9.8480   -8.9710    4.8790 C.3   139  MET139      0.1702
     56  C         10.9180   -7.9710    5.2650 C.2   139  MET139      0.2592
     57  O         12.0960   -8.1410    4.9320 O.2   139  MET139     -0.2718
     58  CB        10.4490  -10.3920    4.7770 C.3   139  MET139      0.0401
     59  CG         9.3800  -11.4670    4.5720 C.3   139  MET139      0.0596
     60  SD         8.3490  -11.8400    6.0040 S.3   139  MET139     -0.1393
     61  CE         8.8580  -13.5840    6.2040 C.3   139  MET139      0.0692
     62  N         10.5030   -6.9960    6.0830 N.am  140  GLU140     -0.1979
     63  CA        11.3590   -5.8890    6.5740 C.3   140  GLU140      0.1602
     64  C         12.2290   -5.3880    5.4270 C.2   140  GLU140      0.2287
     65  O         13.4600   -5.3420    5.5610 O.2   140  GLU140     -0.2864
     66  CB        12.2210   -6.3400    7.7770 C.3   140  GLU140      0.0415
     67  CG        11.4840   -6.7860    9.0130 C.3   140  GLU140      0.1163
     68  CD        10.4020   -5.8280    9.5240 C.2   140  GLU140      0.3649
     69  OE1        9.2630   -6.3110    9.7020 O.co2 140  GLU140     -0.2457
     70  OE2       10.6790   -4.6270    9.7030 O.co2 140  GLU140     -0.2457
     71  N         -4.6280  -12.1220   11.3250 N.3   189  LYS189     -0.1231
     72  CA        -3.2940  -12.6280   10.9830 C.3   189  LYS189      0.1693
     73  C         -2.2490  -11.8560   11.7260 C.2   189  LYS189      0.2593
     74  O         -2.2650  -10.6190   11.7400 O.2   189  LYS189     -0.2718
     75  CB        -3.0450  -12.5120    9.4650 C.3   189  LYS189      0.0285
     76  CG        -1.6970  -13.0500    8.9220 C.3   189  LYS189      0.0035
     77  CD        -1.6090  -14.6190    9.1640 C.3   189  LYS189      0.0206
     78  CE        -0.1520  -15.1350    8.9090 C.3   189  LYS189      0.1093
     79  NZ         0.6260  -14.9470   10.1840 N.3   189  LYS189     -0.1314
     80  N         -1.3330  -12.6130   12.3580 N.am  190  THR190     -0.1939
     81  CA        -0.2540  -11.9840   13.0750 C.3   190  THR190      0.2028
     82  C          0.9300  -11.6750   12.1570 C.2   190  THR190      0.2643
     83  O          1.1110  -12.2440   11.0800 O.2   190  THR190     -0.2714
     84  CB         0.2720  -12.8840   14.2500 C.3   190  THR190      0.1808
     85  OG1        0.5330  -14.1940   13.7290 O.3   190  THR190     -0.2208
     86  CG2       -0.7190  -12.9830   15.3790 C.3   190  THR190      0.0379
     87  N          1.7980  -10.8110   12.6550 N.am  191  GLY191     -0.1939
     88  CA         3.0270  -10.5190   11.9350 C.3   191  GLY191      0.2014
     89  C          4.1060  -10.1710   12.9690 C.2   191  GLY191      0.2640
     90  O          3.8110   -9.4580   13.9250 O.2   191  GLY191     -0.2714
     91  N          5.3330  -10.6820   12.7880 N.am  192  THR192     -0.1936
     92  CA         6.4250  -10.4180   13.7480 C.3   192  THR192      0.2028
     93  C          7.7250  -10.2710   12.9970 C.2   192  THR192      0.2643
     94  O          8.0680  -11.1600   12.1960 O.2   192  THR192     -0.2714
     95  CB         6.6270  -11.6280   14.7230 C.3   192  THR192      0.1808
     96  OG1        5.4080  -11.9590   15.4050 O.3   192  THR192     -0.2208
     97  CG2        7.6850  -11.2990   15.7950 C.3   192  THR192      0.0379
     98  N          8.4510   -9.1670   13.2640 N.am  193  GLY193     -0.1939
     99  CA         9.7650   -8.9570   12.6640 C.3   193  GLY193      0.2014
    100  C         10.7890   -8.9940   13.8140 C.2   193  GLY193      0.2639
    101  O         10.4890   -8.5350   14.9710 O.2   193  GLY193     -0.2714
    102  N         11.9800   -9.5100   13.5050 N.am  194  ILE194     -0.1963
    103  CA        13.0660   -9.5680   14.5110 C.3   194  ILE194      0.1727
    104  C         14.3160   -9.0090   13.8490 C.2   194  ILE194      0.2616
    105  O         14.7240   -9.4850   12.7920 O.2   194  ILE194     -0.2715
    106  CB        13.2750  -11.0270   15.0080 C.3   194  ILE194      0.0290
    107  CG1       11.9770  -11.5920   15.5700 C.3   194  ILE194      0.0022
    108  CG2       14.3950  -11.0690   16.0430 C.3   194  ILE194      0.0023
    109  CD1       12.1510  -13.0960   15.8210 C.3   194  ILE194      0.0001
    110  N         14.8800   -7.9370   14.4140 N.am  195  VAL195     -0.1977
    111  CA        16.0630   -7.2820   13.8380 C.3   195  VAL195      0.1596
    112  C         17.0340   -6.9550   14.9790 C.2   195  VAL195      0.2287
    113  O         16.6460   -6.3300   15.9870 O.2   195  VAL195     -0.2864
    114  CB        15.6580   -6.0230   13.0590 C.3   195  VAL195      0.0276
    115  CG1       16.8670   -5.3150   12.4570 C.3   195  VAL195      0.0022
    116  CG2       14.7260   -6.4340   11.9170 C.3   195  VAL195      0.0022
    117  N         12.5590   -8.1450   18.8660 N.3   199  TYR199     -0.1241
    118  CA        11.3400   -7.9570   18.0600 C.3   199  TYR199      0.1605
    119  C         11.2940   -6.4590   17.7620 C.2   199  TYR199      0.2264
    120  O         11.5640   -5.6440   18.6500 O.2   199  TYR199     -0.2867
    121  CB        10.0790   -8.3580   18.8340 C.3   199  TYR199      0.0534
    122  CG         9.9240   -9.8240   19.1820 C.ar  199  TYR199     -0.0201
    123  CD1       10.2610  -10.8500   18.2620 C.ar  199  TYR199     -0.0009
    124  CD2        9.4060  -10.2000   20.4160 C.ar  199  TYR199     -0.0009
    125  CE1       10.0710  -12.2250   18.5900 C.ar  199  TYR199      0.0417
    126  CE2        9.2080  -11.5670   20.7550 C.ar  199  TYR199      0.0417
    127  CZ         9.5390  -12.5620   19.8330 C.ar  199  TYR199      0.1957
    128  OH         9.2980  -13.8780   20.1550 O.3   199  TYR199     -0.2866
    129  N          3.8790  -10.2340   17.1200 N.3   228  GLY228     -0.1210
    130  CA         2.5010  -10.4880   16.6630 C.3   228  GLY228      0.1956
    131  C          1.6440  -11.0730   17.7850 C.2   228  GLY228      0.2611
    132  O          0.4840  -10.7210   17.9090 O.2   228  GLY228     -0.2717
    133  N          2.2470  -11.8960   18.6720 N.am  229  LYS229     -0.1979
    134  CA         1.5140  -12.4600   19.8180 C.3   229  LYS229      0.1596
    135  C          0.9820  -11.3540   20.7220 C.2   229  LYS229      0.2287
    136  O         -0.1980  -11.3850   21.1030 O.2   229  LYS229     -0.2864
    137  CB         2.4530  -13.3340   20.6660 C.3   229  LYS229      0.0298
    138  CG         2.7750  -14.6040   19.8340 C.3   229  LYS229      0.0038
    139  CD         3.5310  -15.5490   20.7630 C.3   229  LYS229      0.0206
    140  CE         4.7370  -16.0830   19.9830 C.3   229  LYS229      0.1093
    141  NZ         5.4370  -14.8670   19.4220 N.3   229  LYS229     -0.1314
@<TRIPOS>BOND
     1    49    48    2
     2    54    55    1
     3    48    47    1
     4    59    58    1
     5    59    60    1
     6    58    55    1
     7    55    56    1
     8    57    56    2
     9    56    62   am
    10    47    50    1
    11    47    46    1
    12    64    65    2
    13    64    63    1
    14    50    51    1
    15     4     3    2
    16    60    61    1
    17    62    63    1
    18    63    66    1
    19    51    52    2
    20    51    53   am
    21    29    28    2
    22    12    11    2
    23     3     2    1
    24     3     9   am
    25     1     2    1
    26     2     5    1
    27    11    10    1
    28    10     9    1
    29    10    13    1
    30    66    67    1
    31    28    27    1
    32    36    38   ar
    33    36    33   ar
    34    38    39   ar
    35     5     6    1
    36    14    13    1
    37    42    43    2
    38    42    41    1
    39    30    27    1
    40    30    31    1
    41    27    26    1
    42    78    77    1
    43    78    79    1
    44    76    77    1
    45    76    75    1
    46    67    68    1
    47    39    37   ar
    48    33    31   ar
    49    33    35   ar
    50    31    32   ar
    51    41    40    1
    52    41    44    1
    53    75    72    1
    54    68    69   ar
    55    68    70   ar
    56    45    44    1
    57    35    37   ar
    58    35    34   ar
    59     6     7    2
    60     6     8   am
    61    32    34   ar
    62    72    71    1
    63    72    73    1
    64    83    82    2
    65    73    74    2
    66    73    80   am
    67    18    17    2
    68   116   114    1
    69    88    87    1
    70    88    89    1
    71    82    87   am
    72    82    81    1
    73    94    93    2
    74    80    81    1
    75   115   114    1
    76    99    98    1
    77    99   100    1
    78    91    89   am
    79    91    92    1
    80   105   104    2
    81    15    16    1
    82    17    16    1
    83    22    24   ar
    84    22    20   ar
    85    89    90    2
    86    93    98   am
    87    93    92    1
    88    19    16    1
    89    19    20    1
    90   114   111    1
    91    81    84    1
    92   102   100   am
    93   102   103    1
    94    24    25   ar
    95    20    21   ar
    96    85    84    1
    97    92    95    1
    98   100   101    2
    99   111   110    1
   100   111   112    1
   101   104   110   am
   102   104   103    1
   103    84    86    1
   104   103   106    1
   105    95    96    1
   106    95    97    1
   107    25    23   ar
   108   112   113    2
   109   106   107    1
   110   106   108    1
   111    21    23   ar
   112   107   109    1
   113   130   129    1
   114   130   131    1
   115   119   118    1
   116   119   120    2
   117   131   132    2
   118   131   133   am
   119   118   121    1
   120   118   117    1
   121   123   125   ar
   122   123   122   ar
   123   125   127   ar
   124   133   134    1
   125   121   122    1
   126   122   124   ar
   127   141   140    1
   128   134   137    1
   129   134   135    1
   130   127   128    1
   131   127   126   ar
   132   138   137    1
   133   138   139    1
   134   140   139    1
   135   124   126   ar
   136   135   136    2
