@<TRIPOS>MOLECULE
tmp/1xl0A00.pdb
 150 142 0 0 0
SMALL
GASTEIGER

@<TRIPOS>ATOM
      1  N         28.6210   23.5740   30.0620 N.3   124  GLY124     -0.1210
      2  CA        28.8530   22.2970   29.4090 C.3   124  GLY124      0.1956
      3  C         29.6860   21.2600   30.1290 C.2   124  GLY124      0.2611
      4  O         29.3610   20.0700   30.1010 O.2   124  GLY124     -0.2717
      5  N         30.7710   21.6950   30.7600 N.am  125  LEU125     -0.1979
      6  CA        31.6500   20.7680   31.4670 C.3   125  LEU125      0.1596
      7  C         30.9270   20.1180   32.6430 C.2   125  LEU125      0.2287
      8  O         30.9730   18.9000   32.8170 O.2   125  LEU125     -0.2864
      9  CB        32.9110   21.5010   31.9510 C.3   125  LEU125      0.0297
     10  CG        33.9250   20.6740   32.7510 C.3   125  LEU125      0.0022
     11  CD1       34.4500   19.5540   31.8880 C.3   125  LEU125      0.0001
     12  CD2       35.0810   21.5520   33.2070 C.3   125  LEU125      0.0001
     13  N         28.0110   17.8950   31.4390 N.3   128  LEU128     -0.1245
     14  CA        28.4760   16.6290   30.8810 C.3   128  LEU128      0.1561
     15  C         28.6400   15.6220   32.0120 C.2   128  LEU128      0.2260
     16  O         28.2550   14.4630   31.8850 O.2   128  LEU128     -0.2867
     17  CB        29.8110   16.8050   30.1520 C.3   128  LEU128      0.0270
     18  CG        30.2940   15.5320   29.4390 C.3   128  LEU128      0.0019
     19  CD1       29.4520   15.3130   28.1750 C.3   128  LEU128      0.0001
     20  CD2       31.7780   15.6500   29.0800 C.3   128  LEU128      0.0001
     21  N         33.8230   29.9960   32.9040 N.3   266  ASP266     -0.1225
     22  CA        33.5950   28.9670   31.9070 C.3   266  ASP266      0.1805
     23  C         34.7340   29.1210   30.9030 C.2   266  ASP266      0.2597
     24  O         34.8910   30.1760   30.3030 O.2   266  ASP266     -0.2718
     25  CB        32.2500   29.1850   31.2100 C.3   266  ASP266      0.1424
     26  CG        31.9000   28.0580   30.2530 C.2   266  ASP266      0.3668
     27  OD1       31.1620   27.1350   30.6550 O.co2 266  ASP266     -0.2456
     28  OD2       32.3730   28.0920   29.1010 O.co2 266  ASP266     -0.2456
     29  N         35.5470   28.0820   30.7450 N.am  267  ASN267     -0.1974
     30  CA        36.6580   28.1430   29.8050 C.3   267  ASN267      0.1688
     31  C         37.6030   29.3000   30.0540 C.2   267  ASN267      0.2292
     32  O         37.9560   30.0330   29.1320 O.2   267  ASN267     -0.2864
     33  CB        36.1290   28.2370   28.3800 C.3   267  ASN267      0.1181
     34  CG        36.0440   26.8990   27.7210 C.2   267  ASN267      0.2629
     35  OD1       37.0620   26.3030   27.3780 O.2   267  ASN267     -0.2716
     36  ND2       34.8300   26.4020   27.5540 N.am  267  ASN267     -0.0877
     37  N         38.8850   17.0490   32.9090 N.3   313  ASP313     -0.1239
     38  CA        39.8250   18.1140   32.5900 C.3   313  ASP313      0.1674
     39  C         40.9560   18.0520   33.6060 C.2   313  ASP313      0.2266
     40  O         41.1010   17.0510   34.2970 O.2   313  ASP313     -0.2867
     41  CB        39.1870   19.4980   32.6030 C.3   313  ASP313      0.1410
     42  CG        39.8930   20.4440   31.6440 C.2   313  ASP313      0.3668
     43  OD1       39.7050   20.2980   30.4170 O.co2 313  ASP313     -0.2456
     44  OD2       40.6620   21.3040   32.1070 O.co2 313  ASP313     -0.2456
     45  N         41.3070   19.9940   36.2810 N.3   315  HIS315     -0.1241
     46  CA        40.9380   20.4880   37.6020 C.3   315  HIS315      0.1621
     47  C         41.3010   19.5410   38.7470 C.2   315  HIS315      0.2264
     48  O         41.7120   19.9890   39.8160 O.2   315  HIS315     -0.2867
     49  CB        39.4540   20.8360   37.6090 C.3   315  HIS315      0.0745
     50  CG        39.0670   21.7590   36.4970 C.ar  315  HIS315      0.0817
     51  ND1       37.7640   21.9310   36.0860 N.ar  315  HIS315     -0.2268
     52  CD2       39.8200   22.5520   35.6970 C.ar  315  HIS315      0.1154
     53  CE1       37.7300   22.7880   35.0810 C.ar  315  HIS315      0.1986
     54  NE2       38.9660   23.1800   34.8250 N.ar  315  HIS315     -0.2212
     55  N         39.0560   19.1760   27.5080 N.3   351  HIS351     -0.1226
     56  CA        37.8390   19.8080   27.0060 C.3   351  HIS351      0.1752
     57  C         38.0660   21.1340   26.2890 C.2   351  HIS351      0.2596
     58  O         37.1070   21.8020   25.9220 O.2   351  HIS351     -0.2718
     59  CB        36.8640   20.0730   28.1600 C.3   351  HIS351      0.0759
     60  CG        36.4550   18.8480   28.9180 C.ar  351  HIS351      0.0818
     61  ND1       35.2950   18.1540   28.6460 N.ar  351  HIS351     -0.2268
     62  CD2       37.0470   18.2030   29.9510 C.ar  351  HIS351      0.1154
     63  CE1       35.1890   17.1360   29.4820 C.ar  351  HIS351      0.1986
     64  NE2       36.2400   17.1430   30.2850 N.ar  351  HIS351     -0.2212
     65  N         39.3150   21.5300   26.0830 N.am  352  THR352     -0.1953
     66  CA        39.5460   22.8160   25.4340 C.3   352  THR352      0.1897
     67  C         40.9550   22.9610   24.8880 C.2   352  THR352      0.2313
     68  O         41.8690   22.2540   25.3140 O.2   352  THR352     -0.2863
     69  CB        39.3210   23.9830   26.4310 C.3   352  THR352      0.1794
     70  OG1       39.3410   25.2310   25.7280 O.3   352  THR352     -0.2208
     71  CG2       40.4280   24.0000   27.4830 C.3   352  THR352      0.0378
     72  N         42.2970   28.9960   28.9810 N.3   357  ALA357     -0.1245
     73  CA        41.5380   28.0400   29.7910 C.3   357  ALA357      0.1562
     74  C         42.4070   26.9360   30.3920 C.2   357  ALA357      0.2260
     75  O         41.9740   26.2190   31.2950 O.2   357  ALA357     -0.2867
     76  CB        40.4240   27.4160   28.9540 C.3   357  ALA357      0.0290
     77  N         36.9390   15.4730   23.1720 N.3   429  VAL429     -0.1245
     78  CA        35.4970   15.2790   23.3050 C.3   429  VAL429      0.1561
     79  C         34.6450   15.3490   22.0480 C.2   429  VAL429      0.2260
     80  O         33.4150   15.3750   22.1220 O.2   429  VAL429     -0.2867
     81  CB        34.9580   16.2550   24.3540 C.3   429  VAL429      0.0252
     82  CG1       35.4600   15.8300   25.7340 C.3   429  VAL429      0.0019
     83  CG2       35.4350   17.6670   24.0370 C.3   429  VAL429      0.0019
     84  N         31.2340   13.5950   22.8600 N.3   458  ASN458     -0.1240
     85  CA        30.2610   13.8780   23.9130 C.3   458  ASN458      0.1653
     86  C         28.8520   13.4370   23.5480 C.2   458  ASN458      0.2266
     87  O         28.5590   13.0980   22.4030 O.2   458  ASN458     -0.2867
     88  CB        30.2420   15.3830   24.2330 C.3   458  ASN458      0.1155
     89  CG        31.4160   15.8150   25.1070 C.2   458  ASN458      0.2627
     90  OD1       31.6540   17.0140   25.3050 O.2   458  ASN458     -0.2716
     91  ND2       32.1440   14.8460   25.6410 N.am  458  ASN458     -0.0877
     92  N         34.4680   33.4780   22.0120 N.3   547  TYR547     -0.1227
     93  CA        34.6220   32.4130   21.0320 C.3   547  TYR547      0.1736
     94  C         33.2970   31.8180   20.5630 C.2   547  TYR547      0.2595
     95  O         33.2140   31.3030   19.4480 O.2   547  TYR547     -0.2718
     96  CB        35.5720   31.3250   21.5590 C.3   547  TYR547      0.0548
     97  CG        34.9490   30.2150   22.3790 C.ar  547  TYR547     -0.0200
     98  CD1       34.3900   29.0930   21.7640 C.ar  547  TYR547     -0.0009
     99  CD2       34.9730   30.2570   23.7700 C.ar  547  TYR547     -0.0009
    100  CE1       33.8780   28.0390   22.5200 C.ar  547  TYR547      0.0417
    101  CE2       34.4630   29.2110   24.5310 C.ar  547  TYR547      0.0417
    102  CZ        33.9200   28.1070   23.9050 C.ar  547  TYR547      0.1957
    103  OH        33.4260   27.0670   24.6660 O.3   547  TYR547     -0.2866
    104  N         32.2600   31.9080   21.3950 N.am  548  LYS548     -0.1980
    105  CA        30.9440   31.3790   21.0300 C.3   548  LYS548      0.1596
    106  C         30.2490   32.3420   20.0700 C.2   548  LYS548      0.2287
    107  O         29.2380   32.0130   19.4470 O.2   548  LYS548     -0.2864
    108  CB        30.0950   31.1370   22.2810 C.3   548  LYS548      0.0298
    109  CG        30.6100   29.9600   23.1210 C.3   548  LYS548      0.0038
    110  CD        29.8100   29.7740   24.3970 C.3   548  LYS548      0.0206
    111  CE        30.4560   28.7410   25.3190 C.3   548  LYS548      0.1093
    112  NZ        30.3010   27.3320   24.8380 N.3   548  LYS548     -0.1314
    113  N         37.3370   26.1930   18.0160 N.3   645  THR645     -0.1203
    114  CA        37.3170   26.7040   19.3850 C.3   645  THR645      0.1994
    115  C         36.3740   25.9860   20.3470 C.2   645  THR645      0.2618
    116  O         36.6860   25.8620   21.5280 O.2   645  THR645     -0.2717
    117  CB        36.9900   28.2090   19.4130 C.3   645  THR645      0.1784
    118  OG1       35.6860   28.4260   18.8690 O.3   645  THR645     -0.2211
    119  CG2       38.0070   28.9890   18.5820 C.3   645  THR645      0.0376
    120  N         35.2220   25.5260   19.8570 N.am  646  GLU646     -0.1965
    121  CA        34.2750   24.8090   20.7150 C.3   646  GLU646      0.1733
    122  C         34.6680   23.3360   20.6280 C.2   646  GLU646      0.2616
    123  O         34.3640   22.6710   19.6380 O.2   646  GLU646     -0.2715
    124  CB        32.8430   25.0050   20.2080 C.3   646  GLU646      0.0429
    125  CG        31.7450   24.5620   21.1800 C.3   646  GLU646      0.1163
    126  CD        31.6600   25.4430   22.4110 C.2   646  GLU646      0.3649
    127  OE1       32.3570   25.1570   23.4050 O.co2 646  GLU646     -0.2457
    128  OE2       30.9050   26.4370   22.3790 O.co2 646  GLU646     -0.2457
    129  N         35.3460   22.8310   21.6590 N.am  647  ALA647     -0.1963
    130  CA        35.8140   21.4420   21.6740 C.3   647  ALA647      0.1728
    131  C         34.7490   20.4690   21.1810 C.2   647  ALA647      0.2617
    132  O         35.0130   19.6240   20.3210 O.2   647  ALA647     -0.2715
    133  CB        36.2730   21.0530   23.0770 C.3   647  ALA647      0.0334
    134  N         33.5440   20.5960   21.7210 N.am  648  SER648     -0.1936
    135  CA        32.4510   19.7300   21.3120 C.3   648  SER648      0.2055
    136  C         31.1330   20.4720   21.2590 C.2   648  SER648      0.2644
    137  O         30.5260   20.6130   20.1950 O.2   648  SER648     -0.2714
    138  CB        32.3070   18.5520   22.2800 C.3   648  SER648      0.2130
    139  OG        31.1290   17.8010   22.0130 O.3   648  SER648     -0.2179
    140  N         30.7220   20.9740   22.4190 N.am  649  GLY649     -0.1939
    141  CA        29.4420   21.6360   22.5360 C.3   649  GLY649      0.2014
    142  C         28.4830   20.5030   22.8630 C.2   649  GLY649      0.2639
    143  O         28.7060   19.3710   22.4340 O.2   649  GLY649     -0.2714
    144  N         27.4630   20.7710   23.6660 N.am  650  THR650     -0.1950
    145  CA        26.4740   19.7480   23.9920 C.3   650  THR650      0.1897
    146  C         25.0780   20.3300   23.8470 C.2   650  THR650      0.2313
    147  O         24.1090   19.5930   23.6400 O.2   650  THR650     -0.2863
    148  CB        26.6500   19.1820   25.4110 C.3   650  THR650      0.1794
    149  OG1       26.7540   20.2550   26.3480 O.3   650  THR650     -0.2208
    150  CG2       27.8980   18.3010   25.4760 C.3   650  THR650      0.0378
@<TRIPOS>BOND
     1   113   114    1
     2   119   117    1
     3   118   117    1
     4   114   117    1
     5   114   115    1
     6   107   106    2
     7    95    94    2
     8   123   122    2
     9   120   115   am
    10   120   121    1
    11   106   105    1
    12   137   136    2
    13   124   121    1
    14   124   125    1
    15   132   131    2
    16   115   116    2
    17    94    93    1
    18    94   104   am
    19   122   121    1
    20   122   129   am
    21   105   104    1
    22   105   108    1
    23    93    96    1
    24    93    92    1
    25   125   126    1
    26   131   130    1
    27   131   134   am
    28   136   135    1
    29   136   140   am
    30   135   134    1
    31   135   138    1
    32    96    97    1
    33   129   130    1
    34   130   133    1
    35    98    97   ar
    36    98   100   ar
    37   139   138    1
    38    79    80    2
    39    79    78    1
    40   108   109    1
    41    97    99   ar
    42   128   126   ar
    43    87    86    2
    44   126   127   ar
    45   140   141    1
    46   143   142    2
    47   100   102   ar
    48   141   142    1
    49    84    85    1
    50   142   144   am
    51   109   110    1
    52    77    78    1
    53    78    81    1
    54    86    85    1
    55   147   146    2
    56   144   145    1
    57    99   101   ar
    58   146   145    1
    59   102   101   ar
    60   102   103    1
    61    85    88    1
    62   145   148    1
    63    83    81    1
    64    88    89    1
    65    81    82    1
    66   110   111    1
    67   112   111    1
    68    67    68    2
    69    67    66    1
    70    89    90    2
    71    89    91   am
    72   148   150    1
    73   148   149    1
    74    66    65    1
    75    66    69    1
    76    70    69    1
    77    58    57    2
    78    65    57   am
    79    57    56    1
    80    69    71    1
    81    56    55    1
    82    56    59    1
    83    35    34    2
    84    36    34   am
    85    34    33    1
    86    59    60    1
    87    19    18    1
    88    33    30    1
    89    61    60   ar
    90    61    63   ar
    91    60    62   ar
    92    76    73    1
    93    72    73    1
    94    20    18    1
    95    28    26   ar
    96    32    31    2
    97     2     1    1
    98     2     3    1
    99    18    17    1
   100    63    64   ar
   101    73    74    1
   102    30    31    1
   103    30    29    1
   104    62    64   ar
   105     4     3    2
   106     3     5   am
   107    17    14    1
   108    26    27   ar
   109    26    25    1
   110    24    23    2
   111    74    75    2
   112    43    42   ar
   113    29    23   am
   114     5     6    1
   115    14    13    1
   116    14    15    1
   117    23    22    1
   118    25    22    1
   119     6     9    1
   120     6     7    1
   121    42    44   ar
   122    42    41    1
   123    16    15    2
   124    11    10    1
   125    22    21    1
   126     9    10    1
   127    38    41    1
   128    38    37    1
   129    38    39    1
   130     7     8    2
   131    10    12    1
   132    39    40    2
   133    54    53   ar
   134    54    52   ar
   135    53    51   ar
   136    52    50   ar
   137    51    50   ar
   138    45    46    1
   139    50    49    1
   140    46    49    1
   141    46    47    1
   142    47    48    2
