@<TRIPOS>MOLECULE
tmp/1xl2A00.pdb
 116 109 0 0 0
SMALL
GASTEIGER

@<TRIPOS>ATOM
      1  N         21.6660   -5.3760    2.8990 N.3     8  ARG8       -0.1245
      2  CA        22.3820   -4.6950    3.9680 C.3     8  ARG8        0.1563
      3  C         23.4590   -3.7830    3.3670 C.2     8  ARG8        0.2260
      4  O         24.1850   -4.2560    2.4940 O.2     8  ARG8       -0.2867
      5  CB        23.0640   -5.6650    4.9300 C.3     8  ARG8        0.0307
      6  CG        22.1130   -6.3490    5.8970 C.3     8  ARG8        0.0489
      7  CD        22.8010   -7.2770    6.8860 C.3     8  ARG8        0.2205
      8  NE        21.9120   -7.6080    8.0120 N.pl3   8  ARG8       -0.0865
      9  CZ        22.3030   -7.9050    9.2430 C.cat   8  ARG8        0.5346
     10  NH1       23.5850   -7.9340    9.5960 N.pl3   8  ARG8        0.1354
     11  NH2       21.4220   -8.1910   10.1980 N.pl3   8  ARG8        0.1354
     12  N         28.7890   -2.6220    8.5820 N.3    23  LEU23      -0.1245
     13  CA        27.4570   -2.1570    8.2180 C.3    23  LEU23       0.1561
     14  C         27.2620   -0.6700    8.4600 C.2    23  LEU23       0.2260
     15  O         27.5000   -0.2130    9.5780 O.2    23  LEU23      -0.2867
     16  CB        26.4470   -2.9410    9.0350 C.3    23  LEU23       0.0270
     17  CG        24.9580   -2.7440    8.8170 C.3    23  LEU23       0.0019
     18  CD1       24.5070   -3.1870    7.4530 C.3    23  LEU23       0.0001
     19  CD2       24.2180   -3.5550    9.8750 C.3    23  LEU23       0.0001
     20  N         25.1180    2.0180    9.6440 N.3    25  ASP25      -0.1239
     21  CA        23.9660    1.8720   10.5300 C.3    25  ASP25       0.1674
     22  C         23.5250    3.2010   11.1220 C.2    25  ASP25       0.2266
     23  O         24.0690    3.6230   12.1420 O.2    25  ASP25      -0.2867
     24  CB        24.3540    0.9190   11.6630 C.3    25  ASP25       0.1410
     25  CG        23.1880    0.4710   12.5170 C.2    25  ASP25       0.3668
     26  OD1       22.1290    1.1150   12.4070 O.co2  25  ASP25      -0.2456
     27  OD2       23.3340   -0.5040   13.2860 O.co2  25  ASP25      -0.2456
     28  N         20.9840    3.7930   12.7180 N.3    27  GLY27      -0.1210
     29  CA        20.3310    3.6260   13.9840 C.3    27  GLY27       0.1956
     30  C         21.3160    3.5240   15.1330 C.2    27  GLY27       0.2612
     31  O         20.9090    3.4730   16.2890 O.2    27  GLY27      -0.2717
     32  N         22.6120    3.4340   14.8200 N.am   28  ALA28      -0.1965
     33  CA        23.6450    3.3170   15.8350 C.3    28  ALA28       0.1728
     34  C         24.2720    4.6520   16.1830 C.2    28  ALA28       0.2616
     35  O         24.7740    5.3370   15.2790 O.2    28  ALA28      -0.2715
     36  CB        24.7370    2.3780   15.3170 C.3    28  ALA28       0.0334
     37  N         24.3050    5.0250   17.4690 N.am   29  ASP29      -0.1957
     38  CA        24.9850    6.2640   17.7890 C.3    29  ASP29       0.1840
     39  C         26.4850    6.1370   17.6060 C.2    29  ASP29       0.2622
     40  O         27.1720    7.1070   17.2480 O.2    29  ASP29      -0.2715
     41  CB        24.7220    6.6630   19.2600 C.3    29  ASP29       0.1450
     42  CG        23.2780    6.9510   19.5970 C.2    29  ASP29       0.3671
     43  OD1       22.4740    7.2970   18.7130 O.co2  29  ASP29      -0.2456
     44  OD2       22.9160    6.8280   20.8070 O.co2  29  ASP29      -0.2456
     45  N         26.9870    4.9330   17.9160 N.am   30  ASP30      -0.1971
     46  CA        28.4100    4.6790   17.9890 C.3    30  ASP30       0.1709
     47  C         28.8620    3.5730   17.0470 C.2    30  ASP30       0.2293
     48  O         28.1090    2.6820   16.7080 O.2    30  ASP30      -0.2864
     49  CB        28.8420    4.1740   19.3820 C.3    30  ASP30       0.1436
     50  CG        28.3310    5.0610   20.4880 C.2    30  ASP30       0.3671
     51  OD1       28.6480    6.2580   20.3530 O.co2  30  ASP30      -0.2456
     52  OD2       27.6670    4.5390   21.4120 O.co2  30  ASP30      -0.2456
     53  N         30.9480    0.3210   16.4940 N.3    32  VAL32      -0.1245
     54  CA        31.2940   -0.8230   17.3150 C.3    32  VAL32       0.1561
     55  C         31.8300   -1.9450   16.4240 C.2    32  VAL32       0.2260
     56  O         31.1010   -2.3550   15.5290 O.2    32  VAL32      -0.2867
     57  CB        30.1000   -1.3460   18.1290 C.3    32  VAL32       0.0252
     58  CG1       30.6140   -2.4050   19.0970 C.3    32  VAL32       0.0019
     59  CG2       29.4450   -0.2050   18.8900 C.3    32  VAL32       0.0019
     60  N         27.8140    0.2750   27.1290 N.3    47  ILE47      -0.1231
     61  CA        26.9000    0.8350   26.1590 C.3    47  ILE47       0.1692
     62  C         25.5660    0.0890   26.2030 C.2    47  ILE47       0.2593
     63  O         25.5200   -1.0910   26.5280 O.2    47  ILE47      -0.2718
     64  CB        27.4170    0.7810   24.7130 C.3    47  ILE47       0.0266
     65  CG1       27.8450   -0.6220   24.2750 C.3    47  ILE47       0.0019
     66  CG2       28.5230    1.7980   24.4830 C.3    47  ILE47       0.0020
     67  CD1       28.1400   -0.7540   22.7980 C.3    47  ILE47       0.0001
     68  N         24.4770    0.7950   25.8920 N.am   48  GLY48      -0.1942
     69  CA        23.1840    0.1530   26.1310 C.3    48  GLY48       0.2014
     70  C         22.8930   -0.8770   25.0630 C.2    48  GLY48       0.2639
     71  O         23.1950   -0.7610   23.8780 O.2    48  GLY48      -0.2714
     72  N         22.2850   -1.9820   25.4790 N.am   49  GLY49      -0.1939
     73  CA        21.9570   -3.0160   24.4920 C.3    49  GLY49       0.2014
     74  C         20.6130   -3.6250   24.8920 C.2    49  GLY49       0.2639
     75  O         19.9310   -3.1480   25.8060 O.2    49  GLY49      -0.2714
     76  N         20.2780   -4.6880   24.1990 N.am   50  ILE50      -0.1963
     77  CA        19.0290   -5.3970   24.4780 C.3    50  ILE50       0.1727
     78  C         19.1320   -6.0750   25.8270 C.2    50  ILE50       0.2616
     79  O         20.0370   -6.8900   26.0560 O.2    50  ILE50      -0.2715
     80  CB        18.7620   -6.3970   23.3290 C.3    50  ILE50       0.0290
     81  CG1       18.2810   -5.6920   22.0500 C.3    50  ILE50       0.0022
     82  CG2       17.8070   -7.4900   23.7340 C.3    50  ILE50       0.0023
     83  CD1       19.2890   -5.8270   20.9320 C.3    50  ILE50       0.0001
     84  N         18.1850   -5.6950   26.6910 N.am   51  GLY51      -0.1955
     85  CA        18.0810   -6.3100   27.9960 C.3    51  GLY51       0.1869
     86  C         19.1340   -5.8030   28.9550 C.2    51  GLY51       0.2309
     87  O         19.2340   -6.3440   30.0420 O.2    51  GLY51      -0.2863
     88  N         29.6300   -7.2330   19.3970 N.3    80  THR80      -0.1204
     89  CA        28.5930   -6.8330   18.4620 C.3    80  THR80       0.1979
     90  C         28.2500   -7.9190   17.4490 C.2    80  THR80       0.2460
     91  O         29.1220   -8.6520   16.9950 O.2    80  THR80      -0.2732
     92  CB        29.0270   -5.5530   17.7250 C.3    80  THR80       0.1783
     93  OG1       27.9880   -5.2270   16.8100 O.3    80  THR80      -0.2211
     94  CG2       30.3020   -5.7330   16.9220 C.3    80  THR80       0.0376
     95  N         26.9760   -8.0560   17.0650 N.am   81  PRO81      -0.2717
     96  CA        26.5910   -9.0740   16.0960 C.3    81  PRO81       0.1535
     97  C         27.3260   -8.9400   14.7610 C.2    81  PRO81       0.2598
     98  O         27.6350   -9.9280   14.1050 O.2    81  PRO81      -0.2715
     99  CB        25.1050   -8.8240   15.8780 C.3    81  PRO81       0.0310
    100  CG        24.6540   -8.1710   17.1290 C.3    81  PRO81       0.0237
    101  CD        25.7940   -7.2740   17.5150 C.3    81  PRO81       0.0939
    102  N         27.5860   -7.7010   14.3590 N.am   82  VAL82      -0.1978
    103  CA        28.3420   -7.3830   13.1690 C.3    82  VAL82       0.1596
    104  C         29.0880   -6.0630   13.3640 C.2    82  VAL82       0.2287
    105  O         28.6170   -5.2700   14.1570 O.2    82  VAL82      -0.2864
    106  CB        27.4550   -7.2770   11.9150 C.3    82  VAL82       0.0276
    107  CG1       26.5030   -6.1110   12.0880 C.3    82  VAL82       0.0022
    108  CG2       28.2880   -7.1290   10.6600 C.3    82  VAL82       0.0022
    109  N         29.7030   -2.4130   12.9570 N.3    84  ILE84      -0.1245
    110  CA        28.7750   -1.3490   12.6370 C.3    84  ILE84       0.1561
    111  C         29.4880    0.0050   12.6610 C.2    84  ILE84       0.2260
    112  O         30.2500    0.3490   13.5620 O.2    84  ILE84      -0.2867
    113  CB        27.5200   -1.2530   13.5400 C.3    84  ILE84       0.0252
    114  CG1       27.7940   -1.0230   15.0120 C.3    84  ILE84       0.0019
    115  CG2       26.6210   -2.4940   13.3510 C.3    84  ILE84       0.0019
    116  CD1       26.5600   -0.6360   15.7970 C.3    84  ILE84       0.0001
@<TRIPOS>BOND
     1     4     3    2
     2     1     2    1
     3     3     2    1
     4     2     5    1
     5     5     6    1
     6     6     7    1
     7     7     8    1
     8    18    17    1
     9     8     9    2
    10    13    14    1
    11    13    12    1
    12    13    16    1
    13    14    15    2
    14    17    16    1
    15    17    19    1
    16     9    10    1
    17     9    11    1
    18    20    21    1
    19    21    22    1
    20    21    24    1
    21   108   106    1
    22    22    23    2
    23    24    25    1
    24   106   107    1
    25   106   103    1
    26    26    25   ar
    27    25    27   ar
    28   110   111    1
    29   110   109    1
    30   110   113    1
    31   111   112    2
    32    28    29    1
    33   103   104    1
    34   103   102    1
    35   115   113    1
    36   104   105    2
    37   113   114    1
    38    29    30    1
    39    98    97    2
    40   102    97   am
    41    97    96    1
    42    32    30   am
    43    32    33    1
    44   114   116    1
    45    30    31    2
    46    35    34    2
    47    36    33    1
    48    56    55    2
    49    33    34    1
    50    99    96    1
    51    99   100    1
    52    96    95    1
    53    34    37   am
    54    55    54    1
    55    53    54    1
    56    48    47    2
    57    93    92    1
    58    94    92    1
    59    91    90    2
    60    47    46    1
    61    95    90   am
    62    95   101    1
    63   100   101    1
    64    40    39    2
    65    54    57    1
    66    90    89    1
    67    37    38    1
    68    39    38    1
    69    39    45   am
    70    92    89    1
    71    38    41    1
    72    45    46    1
    73    46    49    1
    74    57    59    1
    75    57    58    1
    76    89    88    1
    77    43    42   ar
    78    41    42    1
    79    49    50    1
    80    42    44   ar
    81    51    50   ar
    82    50    52   ar
    83    83    81    1
    84    81    80    1
    85    67    65    1
    86    80    82    1
    87    80    77    1
    88    71    70    2
    89    76    77    1
    90    76    74   am
    91    65    64    1
    92    77    78    1
    93    66    64    1
    94    73    74    1
    95    73    72    1
    96    64    61    1
    97    74    75    2
    98    70    72   am
    99    70    69    1
   100    78    79    2
   101    78    84   am
   102    68    69    1
   103    68    62   am
   104    61    62    1
   105    61    60    1
   106    62    63    2
   107    84    85    1
   108    85    86    1
   109    86    87    2
