@<TRIPOS>MOLECULE
tmp/1xl5B00.pdb
 122 113 0 0 0
SMALL
GASTEIGER

@<TRIPOS>ATOM
      1  N          8.6480   34.2550   -1.0950 N.3     8  ARG8       -0.1245
      2  CA         9.3640   33.0020   -1.2900 C.3     8  ARG8        0.1563
      3  C         10.2680   33.0940   -2.5120 C.2     8  ARG8        0.2260
      4  O          9.7550   33.5610   -3.5210 O.2     8  ARG8       -0.2867
      5  CB         8.3880   31.8450   -1.4860 C.3     8  ARG8        0.0307
      6  CG         7.7080   31.3860   -0.2030 C.3     8  ARG8        0.0489
      7  CD         7.1440   29.9760   -0.4060 C.3     8  ARG8        0.2205
      8  NE         6.7690   29.4140    0.8910 N.pl3   8  ARG8       -0.0865
      9  CZ         6.5100   28.1320    1.0960 C.cat   8  ARG8        0.5346
     10  NH1        6.5930   27.2890    0.0860 N.pl3   8  ARG8        0.1354
     11  NH2        6.1730   27.6950    2.2980 N.pl3   8  ARG8        0.1354
     12  N         11.6260   26.1520   -5.0540 N.3    23  LEU23      -0.1245
     13  CA        12.0660   27.0280   -3.9760 C.3    23  LEU23       0.1561
     14  C         13.5590   26.9680   -3.7350 C.2    23  LEU23       0.2260
     15  O         14.0780   25.8630   -3.4760 O.2    23  LEU23      -0.2867
     16  CB        11.3700   26.5560   -2.6930 C.3    23  LEU23       0.0270
     17  CG        11.4380   27.4190   -1.4430 C.3    23  LEU23       0.0019
     18  CD1       10.8680   28.8090   -1.6740 C.3    23  LEU23       0.0001
     19  CD2       10.6730   26.7520   -0.3110 C.3    23  LEU23       0.0001
     20  N         16.3260   26.9190   -1.3320 N.3    25  ASP25      -0.1239
     21  CA        16.2780   26.6080    0.0870 C.3    25  ASP25       0.1674
     22  C         17.6430   26.3370    0.6890 C.2    25  ASP25       0.2266
     23  O         18.1910   25.2430    0.5970 O.2    25  ASP25      -0.2867
     24  CB        15.3940   25.3730    0.3390 C.3    25  ASP25       0.1410
     25  CG        15.1030   25.1400    1.8120 C.2    25  ASP25       0.3668
     26  OD1       15.7250   25.8220    2.6620 O.co2  25  ASP25      -0.2456
     27  OD2       14.2490   24.2800    2.1270 O.co2  25  ASP25      -0.2456
     28  N         18.2650   26.0150    3.6360 N.3    27  GLY27      -0.1210
     29  CA        17.9910   25.1340    4.7630 C.3    27  GLY27       0.1956
     30  C         18.0010   23.6730    4.3800 C.2    27  GLY27       0.2612
     31  O         17.8070   22.7940    5.2290 O.2    27  GLY27      -0.2717
     32  N         18.1850   23.3720    3.1020 N.am   28  ALA28      -0.1965
     33  CA        18.1150   22.0220    2.5680 C.3    28  ALA28       0.1728
     34  C         19.4780   21.5830    2.0500 C.2    28  ALA28       0.2616
     35  O         20.1000   22.2550    1.2240 O.2    28  ALA28      -0.2715
     36  CB        17.0680   21.9790    1.4670 C.3    28  ALA28       0.0334
     37  N         19.9500   20.4400    2.5330 N.am   29  ASP29      -0.1957
     38  CA        21.2310   19.9100    2.1060 C.3    29  ASP29       0.1840
     39  C         21.2060   19.4570    0.6470 C.2    29  ASP29       0.2622
     40  O         22.1800   19.5790   -0.0920 O.2    29  ASP29      -0.2715
     41  CB        21.6140   18.7270    2.9860 C.3    29  ASP29       0.1450
     42  CG        21.8900   19.0250    4.4390 C.2    29  ASP29       0.3671
     43  OD1       22.0300   20.1810    4.8870 O.co2  29  ASP29      -0.2456
     44  OD2       21.9790   18.0050    5.1670 O.co2  29  ASP29      -0.2456
     45  N         20.0700   18.9060    0.2470 N.am   30  ASP30      -0.1971
     46  CA        19.8730   18.2920   -1.0540 C.3    30  ASP30       0.1709
     47  C         18.6060   18.8230   -1.7290 C.2    30  ASP30       0.2293
     48  O         17.8160   19.5060   -1.0780 O.2    30  ASP30      -0.2864
     49  CB        19.7520   16.7690   -0.9370 C.3    30  ASP30       0.1436
     50  CG        20.9160   16.0980   -0.2280 C.2    30  ASP30       0.3671
     51  OD1       22.0390   16.2290   -0.7460 O.co2  30  ASP30      -0.2456
     52  OD2       20.7210   15.4460    0.8230 O.co2  30  ASP30      -0.2456
     53  N         15.0870   18.1360   -3.6940 N.3    32  VAL32      -0.1245
     54  CA        14.0220   17.1370   -3.6960 C.3    32  VAL32       0.1561
     55  C         12.8150   17.6930   -4.4530 C.2    32  VAL32       0.2260
     56  O         12.3720   18.8180   -4.1930 O.2    32  VAL32      -0.2867
     57  CB        13.6570   16.6890   -2.2750 C.3    32  VAL32       0.0252
     58  CG1       13.0590   17.8130   -1.4590 C.3    32  VAL32       0.0019
     59  CG2       12.6740   15.5250   -2.3420 C.3    32  VAL32       0.0019
     60  N         17.1360    6.7900   -0.0050 N.3    45  LYS45      -0.1245
     61  CA        17.6460    7.8370    0.8420 C.3    45  LYS45       0.1561
     62  C         16.5780    8.2820    1.8430 C.2    45  LYS45       0.2260
     63  O         15.4060    8.2740    1.5000 O.2    45  LYS45      -0.2867
     64  CB        18.0800    9.0590    0.0190 C.3    45  LYS45       0.0271
     65  CG        18.7140   10.0600    0.9810 C.3    45  LYS45       0.0035
     66  CD        19.8880   10.7720    0.3590 C.3    45  LYS45       0.0206
     67  CE        20.1300   12.0930    1.0840 C.3    45  LYS45       0.1093
     68  NZ        21.3290   11.9990    1.9520 N.3    45  LYS45      -0.1314
     69  N         15.4380   11.5460    4.2240 N.3    47  ILE47      -0.1231
     70  CA        15.7300   12.9300    4.5680 C.3    47  ILE47       0.1692
     71  C         14.8180   13.3860    5.6990 C.2    47  ILE47       0.2593
     72  O         13.6530   13.0140    5.7380 O.2    47  ILE47      -0.2718
     73  CB        15.5820   13.8370    3.3340 C.3    47  ILE47       0.0266
     74  CG1       14.2150   13.8230    2.6780 C.3    47  ILE47       0.0019
     75  CG2       16.7050   13.4580    2.3650 C.3    47  ILE47       0.0020
     76  CD1       14.0430   14.7250    1.4710 C.3    47  ILE47       0.0001
     77  N         15.4050   14.1930    6.5780 N.am   48  GLY48      -0.1942
     78  CA        14.7380   14.6860    7.7600 C.3    48  GLY48       0.2014
     79  C         14.3610   16.1490    7.6800 C.2    48  GLY48       0.2639
     80  O         15.2020   16.9810    7.3620 O.2    48  GLY48      -0.2714
     81  N         13.1020   16.4590    7.9630 N.am   49  GLY49      -0.1939
     82  CA        12.6090   17.8140    7.9750 C.3    49  GLY49       0.2014
     83  C         11.9810   18.1440    9.3250 C.2    49  GLY49       0.2638
     84  O         12.2930   17.5060   10.3350 O.2    49  GLY49      -0.2714
     85  N         11.0920   19.1310    9.3140 N.am   50  ILE50      -0.1977
     86  CA        10.5860   19.6650   10.5740 C.3    50  ILE50       0.1596
     87  C          9.7970   18.6540   11.3770 C.2    50  ILE50       0.2287
     88  O          9.8440   18.6770   12.6070 O.2    50  ILE50      -0.2864
     89  CB         9.6830   20.8860   10.3260 C.3    50  ILE50       0.0276
     90  CG1        9.3140   21.6630   11.5890 C.3    50  ILE50       0.0022
     91  CG2        8.4180   20.4700    9.5980 C.3    50  ILE50       0.0022
     92  CD1       10.4830   22.1300   12.4040 C.3    50  ILE50       0.0001
     93  N         16.6620   14.2070   -5.7540 N.3    76  LEU76      -0.1245
     94  CA        15.7890   13.3080   -5.0130 C.3    76  LEU76       0.1561
     95  C         14.3470   13.5140   -5.4320 C.2    76  LEU76       0.2260
     96  O         13.9480   14.6250   -5.7600 O.2    76  LEU76      -0.2867
     97  CB        15.9430   13.5320   -3.5110 C.3    76  LEU76       0.0270
     98  CG        17.3850   13.6730   -3.0280 C.3    76  LEU76       0.0019
     99  CD1       17.4270   13.9810   -1.5380 C.3    76  LEU76       0.0001
    100  CD2       18.1770   12.4160   -3.3470 C.3    76  LEU76       0.0001
    101  N          6.5700   18.7230    0.1460 N.2    81  PRO81      -0.2571
    102  CA         5.4680   19.6950    0.0760 C.3    81  PRO81       0.2026
    103  C          5.6120   20.6630   -1.0900 C.2    81  PRO81       0.2683
    104  O          4.6190   21.1870   -1.5910 O.2    81  PRO81      -0.2709
    105  CB         5.5460   20.4410    1.4030 C.2    81  PRO81       0.0085
    106  CG         6.7930   20.0280    2.0830 C.2    81  PRO81       0.0180
    107  CD         7.3840   18.8610    1.3570 C.2    81  PRO81       0.0938
    108  N          6.8240   20.9090   -1.5420 N.am   82  VAL82      -0.1973
    109  CA         7.1410   21.7680   -2.6740 C.3    82  VAL82       0.1596
    110  C          8.4780   21.3740   -3.2920 C.2    82  VAL82       0.2287
    111  O          9.3350   20.8830   -2.5510 O.2    82  VAL82      -0.2864
    112  CB         7.1810   23.2450   -2.2570 C.3    82  VAL82       0.0276
    113  CG1        8.3860   23.5380   -1.3750 C.3    82  VAL82       0.0022
    114  CG2        7.2070   24.1380   -3.4820 C.3    82  VAL82       0.0022
    115  N         12.1200   21.6310   -4.0450 N.3    84  ILE84      -0.1245
    116  CA        13.1570   22.3290   -3.3110 C.3    84  ILE84       0.1561
    117  C         14.5170   22.1620   -3.9800 C.2    84  ILE84       0.2260
    118  O         14.9500   21.0330   -4.1790 O.2    84  ILE84      -0.2867
    119  CB        13.2300   21.7440   -1.8860 C.3    84  ILE84       0.0252
    120  CG1       12.0170   22.1290   -1.0270 C.3    84  ILE84       0.0019
    121  CG2       14.5300   22.0970   -1.1830 C.3    84  ILE84       0.0019
    122  CD1       11.8560   21.1760    0.1440 C.3    84  ILE84       0.0001
@<TRIPOS>BOND
     1    96    95    2
     2    93    94    1
     3    95    94    1
     4    12    13    1
     5    94    97    1
     6    55    56    2
     7    55    54    1
     8   118   117    2
     9   115   116    1
    10   117   116    1
    11    13    14    1
    12    13    16    1
    13    14    15    2
    14    54    53    1
    15    54    57    1
    16     4     3    2
    17    97    98    1
    18   114   112    1
    19   100    98    1
    20   116   119    1
    21   110   109    1
    22   110   111    2
    23    98    99    1
    24    16    17    1
    25   109   112    1
    26   109   108    1
    27     3     2    1
    28    59    57    1
    29    57    58    1
    30   112   113    1
    31   119   121    1
    32   119   120    1
    33    47    48    2
    34    47    46    1
    35    18    17    1
    36   104   103    2
    37   108   103   am
    38     5     2    1
    39     5     6    1
    40    17    19    1
    41    20    21    1
    42     2     1    1
    43   103   102    1
    44    46    49    1
    45    46    45    1
    46   120   122    1
    47    49    50    1
    48    51    50   ar
    49     7     6    1
    50     7     8    1
    51    50    52   ar
    52    40    39    2
    53    60    61    1
    54    64    61    1
    55    64    65    1
    56   102   101    1
    57   102   105    1
    58    10     9    1
    59    21    24    1
    60    21    22    1
    61   101   107    2
    62    45    39   am
    63    24    25    1
    64    66    65    1
    65    66    67    1
    66    23    22    2
    67    39    38    1
    68    61    62    1
    69     8     9    2
    70    67    68    1
    71     9    11    1
    72    35    34    2
    73   107   106    1
    74   105   106    2
    75    36    33    1
    76    76    74    1
    77    63    62    2
    78    25    27   ar
    79    25    26   ar
    80    34    37   am
    81    34    33    1
    82    38    37    1
    83    38    41    1
    84    75    73    1
    85    33    32    1
    86    74    73    1
    87    41    42    1
    88    32    30   am
    89    73    70    1
    90    28    29    1
    91    69    70    1
    92    30    29    1
    93    30    31    2
    94    42    43   ar
    95    42    44   ar
    96    70    71    1
    97    71    72    2
    98    71    77   am
    99    77    78    1
   100    80    79    2
   101    79    78    1
   102    79    81   am
   103    81    82    1
   104    82    83    1
   105    85    83   am
   106    85    86    1
   107    83    84    2
   108    91    89    1
   109    89    86    1
   110    89    90    1
   111    86    87    1
   112    87    88    2
   113    90    92    1
