@<TRIPOS>MOLECULE
tmp/1xl7A00.pdb
 109 103 0 0 0
SMALL
GASTEIGER

@<TRIPOS>ATOM
      1  N         -4.0730  148.9630   84.6810 N.3    75  TRP75      -0.1241
      2  CA        -4.5920  147.7790   84.0010 C.3    75  TRP75       0.1605
      3  C         -3.4990  147.1070   83.1760 C.2    75  TRP75       0.2264
      4  O         -3.3370  145.8850   83.2180 O.2    75  TRP75      -0.2867
      5  CB        -5.7700  148.1650   83.0930 C.3    75  TRP75       0.0550
      6  CG        -6.4300  146.9950   82.3990 C.ar   75  TRP75       0.0003
      7  CD1       -6.4460  146.7400   81.0540 C.ar   75  TRP75       0.0946
      8  CD2       -7.1610  145.9260   83.0160 C.ar   75  TRP75       0.0152
      9  NE1       -7.1400  145.5810   80.7980 N.ar   75  TRP75      -0.2442
     10  CE2       -7.5880  145.0610   81.9830 C.ar   75  TRP75       0.0810
     11  CE3       -7.4970  145.6150   84.3430 C.ar   75  TRP75       0.0012
     12  CZ2       -8.3360  143.9020   82.2350 C.ar   75  TRP75       0.0191
     13  CZ3       -8.2400  144.4620   84.5930 C.ar   75  TRP75       0.0001
     14  CH2       -8.6500  143.6210   83.5410 C.ar   75  TRP75       0.0015
     15  N         -2.7890  143.5710   84.8690 N.3    79  ALA79      -0.1231
     16  CA        -3.4400  142.5290   84.0860 C.3    79  ALA79       0.1694
     17  C         -2.5030  141.8530   83.0900 C.2    79  ALA79       0.2592
     18  O         -2.7460  140.7150   82.6950 O.2    79  ALA79      -0.2718
     19  CB        -4.6490  143.1140   83.3410 C.3    79  ALA79       0.0304
     20  N         -1.4300  142.5370   82.7020 N.am   80  TYR80      -0.1976
     21  CA        -0.5150  141.9820   81.7040 C.3    80  TYR80       0.1639
     22  C          0.9890  142.0030   81.9500 C.2    80  TYR80       0.2290
     23  O          1.6180  140.9550   82.0670 O.2    80  TYR80      -0.2864
     24  CB        -0.7530  142.6670   80.3550 C.3    80  TYR80       0.0560
     25  CG        -2.1570  142.5270   79.8280 C.ar   80  TYR80      -0.0198
     26  CD1       -2.6180  141.3080   79.3320 C.ar   80  TYR80      -0.0009
     27  CD2       -3.0310  143.6140   79.8230 C.ar   80  TYR80      -0.0009
     28  CE1       -3.9120  141.1780   78.8400 C.ar   80  TYR80       0.0417
     29  CE2       -4.3300  143.4900   79.3340 C.ar   80  TYR80       0.0417
     30  CZ        -4.7580  142.2730   78.8420 C.ar   80  TYR80       0.1957
     31  OH        -6.0270  142.1540   78.3210 O.3    80  TYR80      -0.2866
     32  N          2.4670  140.1780   85.1150 N.3    83  VAL83      -0.1245
     33  CA         2.2240  138.7390   85.1460 C.3    83  VAL83       0.1561
     34  C          3.4610  138.0090   84.6270 C.2    83  VAL83       0.2260
     35  O          4.0380  138.3850   83.6050 O.2    83  VAL83      -0.2867
     36  CB         0.9750  138.3790   84.3120 C.3    83  VAL83       0.0252
     37  CG1        0.6670  136.8900   84.4300 C.3    83  VAL83       0.0019
     38  CG2       -0.2140  139.1960   84.8110 C.3    83  VAL83       0.0019
     39  N          3.7100  134.3580   84.1450 N.3    85  ILE85      -0.1245
     40  CA         3.5120  133.1360   83.3700 C.3    85  ILE85       0.1561
     41  C          3.7970  133.3640   81.8890 C.2    85  ILE85       0.2260
     42  O          3.7630  134.4960   81.4130 O.2    85  ILE85      -0.2867
     43  CB         2.0740  132.5860   83.5240 C.3    85  ILE85       0.0252
     44  CG1        1.0740  133.5280   82.8540 C.3    85  ILE85       0.0019
     45  CG2        1.7480  132.4100   85.0050 C.3    85  ILE85       0.0019
     46  CD1       -0.3720  133.0650   82.9600 C.3    85  ILE85       0.0001
     47  N         -0.5170  131.4090   77.2310 N.3    90  ASN90      -0.1225
     48  CA        -1.5760  131.6770   78.1950 C.3    90  ASN90       0.1785
     49  C         -2.2820  133.0230   78.1760 C.2    90  ASN90       0.2597
     50  O         -3.2740  133.2020   78.8820 O.2    90  ASN90      -0.2718
     51  CB        -1.0360  131.4170   79.6020 C.3    90  ASN90       0.1169
     52  CG        -0.4610  130.0200   79.7520 C.2    90  ASN90       0.2627
     53  OD1       -1.1920  129.0250   79.7410 O.2    90  ASN90      -0.2716
     54  ND2        0.8620  129.9380   79.8780 N.am   90  ASN90      -0.0877
     55  N         -1.7980  133.9640   77.3770 N.am   91  VAL91      -0.1980
     56  CA        -2.4220  135.2790   77.3510 C.3    91  VAL91       0.1595
     57  C         -2.7360  135.7820   75.9480 C.2    91  VAL91       0.2287
     58  O         -3.7850  136.3810   75.7320 O.2    91  VAL91      -0.2864
     59  CB        -1.5380  136.3120   78.0840 C.3    91  VAL91       0.0276
     60  CG1       -2.2790  137.6290   78.2300 C.3    91  VAL91       0.0022
     61  CG2       -1.1470  135.7720   79.4580 C.3    91  VAL91       0.0022
     62  N         -1.8910  140.2620   73.9350 N.3   311  HIS311     -0.1241
     63  CA        -3.1030  140.8760   74.4750 C.3   311  HIS311      0.1621
     64  C         -2.8190  142.1490   75.2730 C.2   311  HIS311      0.2264
     65  O         -3.7220  142.9400   75.5400 O.2   311  HIS311     -0.2867
     66  CB        -3.8210  139.8710   75.3800 C.3   311  HIS311      0.0745
     67  CG        -5.2870  140.1310   75.5340 C.ar  311  HIS311      0.0817
     68  ND1       -5.8390  141.3900   75.4170 N.ar  311  HIS311     -0.2268
     69  CD2       -6.3160  139.2910   75.7970 C.ar  311  HIS311      0.1154
     70  CE1       -7.1450  141.3120   75.5980 C.ar  311  HIS311      0.1986
     71  NE2       -7.4600  140.0500   75.8310 N.ar  311  HIS311     -0.2212
     72  N         -6.9660  144.9930   72.6420 N.3   315  ASP315     -0.1239
     73  CA        -7.8950  143.8890   72.7130 C.3   315  ASP315      0.1674
     74  C         -8.1740  143.4020   71.2970 C.2   315  ASP315      0.2266
     75  O         -7.7890  144.0540   70.3280 O.2   315  ASP315     -0.2867
     76  CB        -9.1530  144.3480   73.4550 C.3   315  ASP315      0.1410
     77  CG        -8.8240  144.8950   74.8440 C.2   315  ASP315      0.3668
     78  OD1       -8.1770  144.1630   75.6300 O.co2 315  ASP315     -0.2456
     79  OD2       -9.1920  146.0530   75.1500 O.co2 315  ASP315     -0.2456
     80  N        -17.0390  135.5530   83.3730 N.3   410  TYR410     -0.1241
     81  CA       -16.4750  136.8450   83.0090 C.3   410  TYR410      0.1605
     82  C        -16.8110  137.1080   81.5430 C.2   410  TYR410      0.2264
     83  O        -16.5390  136.2720   80.6770 O.2   410  TYR410     -0.2867
     84  CB       -14.9400  136.8210   83.1730 C.3   410  TYR410      0.0534
     85  CG       -14.2210  138.0760   82.6960 C.ar  410  TYR410     -0.0201
     86  CD1      -14.2090  138.4380   81.3440 C.ar  410  TYR410     -0.0009
     87  CD2      -13.5750  138.9150   83.6060 C.ar  410  TYR410     -0.0009
     88  CE1      -13.5770  139.6130   80.9120 C.ar  410  TYR410      0.0417
     89  CE2      -12.9390  140.0840   83.1880 C.ar  410  TYR410      0.0417
     90  CZ       -12.9450  140.4320   81.8440 C.ar  410  TYR410      0.1957
     91  OH       -12.3390  141.6060   81.4470 O.3   410  TYR410     -0.2866
     92  N        -16.3280  140.0880   78.5960 N.3   412  THR412     -0.1218
     93  CA       -15.7130  141.3560   78.2600 C.3   412  THR412      0.1862
     94  C        -16.7440  142.3990   77.8540 C.2   412  THR412      0.2287
     95  O        -17.6770  142.1110   77.1020 O.2   412  THR412     -0.2866
     96  CB       -14.7150  141.2040   77.0840 C.3   412  THR412      0.1770
     97  OG1      -13.6740  140.2870   77.4460 O.3   412  THR412     -0.2211
     98  CG2      -14.1030  142.5450   76.7330 C.3   412  THR412      0.0375
     99  N        -11.5960  147.7950   78.6440 N.3   422  THR422     -0.1218
    100  CA       -12.6330  146.8650   79.0640 C.3   422  THR422      0.1862
    101  C        -13.1180  146.9790   80.5050 C.2   422  THR422      0.2287
    102  O        -12.5170  147.6420   81.3470 O.2   422  THR422     -0.2866
    103  CB       -12.1660  145.4100   78.8750 C.3   422  THR422      0.1770
    104  OG1      -11.0910  145.1380   79.7880 O.3   422  THR422     -0.2211
    105  CG2      -11.6830  145.1840   77.4480 C.3   422  THR422      0.0375
    106  N         -9.4020  137.2380   89.1410 N.3   503  GLY503     -0.1225
    107  CA        -9.1580  136.3880   87.9900 C.3   503  GLY503      0.1811
    108  C         -9.4880  134.9240   88.2210 C.2   503  GLY503      0.2280
    109  O         -8.7650  134.0430   87.7560 O.2   503  GLY503     -0.2866
@<TRIPOS>BOND
     1    75    74    2
     2    74    73    1
     3    72    73    1
     4    73    76    1
     5    76    77    1
     6    62    63    1
     7    63    64    1
     8    63    66    1
     9    77    79   ar
    10    77    78   ar
    11    64    65    2
    12    66    67    1
    13    68    67   ar
    14    68    70   ar
    15    67    69   ar
    16    70    71   ar
    17    58    57    2
    18    69    71   ar
    19    57    56    1
    20    98    96    1
    21    96    97    1
    22    96    93    1
    23    95    94    2
    24    47    48    1
    25    56    55    1
    26    56    59    1
    27    55    49   am
    28   105   103    1
    29    94    93    1
    30    59    60    1
    31    59    61    1
    32    49    48    1
    33    49    50    2
    34    48    51    1
    35    93    92    1
    36    31    30    1
    37    99   100    1
    38    28    30   ar
    39    28    26   ar
    40    30    29   ar
    41   103   100    1
    42   103   104    1
    43   100   101    1
    44    26    25   ar
    45    29    27   ar
    46    51    52    1
    47    53    52    2
    48    52    54   am
    49    27    25   ar
    50    25    24    1
    51    24    21    1
    52   101   102    2
    53    83    82    2
    54     9     7   ar
    55     9    10   ar
    56    88    86   ar
    57    88    90   ar
    58     7     6   ar
    59    86    85   ar
    60    42    41    2
    61    91    90    1
    62    82    81    1
    63    21    22    1
    64    21    20    1
    65    90    89   ar
    66    41    40    1
    67    22    23    2
    68    10    12   ar
    69    10     8   ar
    70    12    14   ar
    71     6     8   ar
    72     6     5    1
    73    18    17    2
    74    85    84    1
    75    85    87   ar
    76    20    17   am
    77    44    46    1
    78    44    43    1
    79    81    84    1
    80    81    80    1
    81     8    11   ar
    82    17    16    1
    83     5     2    1
    84     3     4    2
    85     3     2    1
    86    89    87   ar
    87    19    16    1
    88    40    43    1
    89    40    39    1
    90    43    45    1
    91    14    13   ar
    92    35    34    2
    93     2     1    1
    94    16    15    1
    95    36    37    1
    96    36    38    1
    97    36    33    1
    98    11    13   ar
    99    34    33    1
   100    32    33    1
   101   109   108    2
   102   107   108    1
   103   107   106    1
