@<TRIPOS>MOLECULE
tmp/1xl7B01.pdb
 116 112 0 0 0
SMALL
GASTEIGER

@<TRIPOS>ATOM
      1  N         51.5990   45.8750  114.0800 N.3    93  PHE93      -0.1241
      2  CA        52.6590   46.2110  113.1500 C.3    93  PHE93       0.1605
      3  C         53.3980   47.4060  113.7370 C.2    93  PHE93       0.2264
      4  O         52.8270   48.1810  114.5230 O.2    93  PHE93      -0.2867
      5  CB        52.1180   46.5020  111.7360 C.3    93  PHE93       0.0534
      6  CG        51.1360   47.6460  111.6520 C.ar   93  PHE93      -0.0203
      7  CD1       51.5810   48.9650  111.6140 C.ar   93  PHE93      -0.0042
      8  CD2       49.7650   47.3940  111.5490 C.ar   93  PHE93      -0.0042
      9  CE1       50.6750   50.0260  111.4710 C.ar   93  PHE93      -0.0003
     10  CE2       48.8500   48.4430  111.4050 C.ar   93  PHE93      -0.0003
     11  CZ        49.3090   49.7640  111.3650 C.ar   93  PHE93      -0.0000
     12  N         46.7380   46.0970  114.6760 N.3   311  HIS311     -0.1241
     13  CA        46.4180   45.8520  113.2720 C.3   311  HIS311      0.1621
     14  C         44.9240   45.6280  113.0320 C.2   311  HIS311      0.2264
     15  O         44.4600   45.6790  111.9000 O.2   311  HIS311     -0.2867
     16  CB        47.1870   44.6220  112.7690 C.3   311  HIS311      0.0745
     17  CG        47.3790   44.5920  111.2840 C.ar  311  HIS311      0.0817
     18  ND1       46.5340   45.2390  110.4100 N.ar  311  HIS311     -0.2268
     19  CD2       48.3250   43.9950  110.5190 C.ar  311  HIS311      0.1154
     20  CE1       46.9500   45.0450  109.1710 C.ar  311  HIS311      0.1986
     21  NE2       48.0350   44.2940  109.2090 N.ar  311  HIS311     -0.2212
     22  N         44.9880   49.2540  108.6050 N.3   315  ASP315     -0.1225
     23  CA        46.1990   48.7200  108.0190 C.3   315  ASP315      0.1805
     24  C         47.3170   49.7590  108.0870 C.2   315  ASP315      0.2597
     25  O         47.0910   50.9000  108.4900 O.2   315  ASP315     -0.2718
     26  CB        45.8950   48.2480  106.5920 C.3   315  ASP315      0.1424
     27  CG        44.7480   47.2320  106.5640 C.2   315  ASP315      0.3668
     28  OD1       44.8050   46.2640  107.3520 O.co2 315  ASP315     -0.2456
     29  OD2       43.7880   47.4030  105.7780 O.co2 315  ASP315     -0.2456
     30  N         48.5180   49.3590  107.6940 N.am  316  ALA316     -0.1979
     31  CA        49.6970   50.2150  107.7850 C.3   316  ALA316      0.1597
     32  C         49.7130   51.5800  107.1050 C.2   316  ALA316      0.2287
     33  O         50.4330   52.4660  107.5480 O.2   316  ALA316     -0.2864
     34  CB        50.9230   49.4260  107.3370 C.3   316  ALA316      0.0319
     35  N         52.1080   35.6130  100.4540 N.3   421  TYR421     -0.1241
     36  CA        50.9480   36.4720  100.6480 C.3   421  TYR421      0.1605
     37  C         51.3960   37.9080  100.4160 C.2   421  TYR421      0.2264
     38  O         52.3400   38.3730  101.0640 O.2   421  TYR421     -0.2867
     39  CB        50.4180   36.3370  102.0910 C.3   421  TYR421      0.0534
     40  CG        49.3050   37.3090  102.4670 C.ar  421  TYR421     -0.0201
     41  CD1       49.5410   38.6850  102.5410 C.ar  421  TYR421     -0.0009
     42  CD2       48.0140   36.8490  102.7430 C.ar  421  TYR421     -0.0009
     43  CE1       48.5200   39.5820  102.8770 C.ar  421  TYR421      0.0417
     44  CE2       46.9850   37.7390  103.0780 C.ar  421  TYR421      0.0417
     45  CZ        47.2450   39.1040  103.1410 C.ar  421  TYR421      0.1957
     46  OH        46.2300   39.9920  103.4450 O.3   421  TYR421     -0.2866
     47  N         49.9000   41.8560  100.2840 N.3   423  THR423     -0.1218
     48  CA        48.7640   42.7160  100.5640 C.3   423  THR423      0.1862
     49  C         48.3940   43.5320   99.3320 C.2   423  THR423      0.2287
     50  O         49.2550   44.1300   98.6930 O.2   423  THR423     -0.2866
     51  CB        49.0850   43.7300  101.6920 C.3   423  THR423      0.1770
     52  OG1       49.4590   43.0320  102.8860 O.3   423  THR423     -0.2211
     53  CG2       47.8710   44.6170  101.9720 C.3   423  THR423      0.0375
     54  N         54.9640   36.4080  104.1930 N.3   519  SER519     -0.1202
     55  CA        53.9070   37.3730  104.4820 C.3   519  SER519      0.2020
     56  C         54.5360   38.6970  104.0870 C.2   519  SER519      0.2619
     57  O         55.4990   39.1440  104.7110 O.2   519  SER519     -0.2717
     58  CB        53.5620   37.3670  105.9700 C.3   519  SER519      0.2103
     59  OG        52.6010   38.3690  106.2450 O.3   519  SER519     -0.2182
     60  N         53.9790   39.3330  103.0650 N.am  520  THR520     -0.1938
     61  CA        54.5700   40.5490  102.5300 C.3   520  THR520      0.2028
     62  C         53.6240   41.6800  102.1800 C.2   520  THR520      0.2643
     63  O         52.4170   41.5000  102.0450 O.2   520  THR520     -0.2714
     64  CB        55.3490   40.2300  101.2330 C.3   520  THR520      0.1808
     65  OG1       54.4130   40.0130  100.1670 O.3   520  THR520     -0.2208
     66  CG2       56.1760   38.9470  101.3970 C.3   520  THR520      0.0379
     67  N         54.2160   42.8490  101.9920 N.am  521  SER521     -0.1935
     68  CA        53.4670   44.0270  101.6180 C.3   521  SER521      0.2055
     69  C         54.3720   45.1970  101.2730 C.2   521  SER521      0.2643
     70  O         55.4350   45.3770  101.8720 O.2   521  SER521     -0.2714
     71  CB        52.5410   44.4510  102.7580 C.3   521  SER521      0.2130
     72  OG        51.6830   45.4890  102.3250 O.3   521  SER521     -0.2179
     73  N         53.9510   45.9680  100.2790 N.am  522  LEU522     -0.1963
     74  CA        54.6440   47.1880   99.9090 C.3   522  LEU522      0.1728
     75  C         54.1190   48.1540  100.9790 C.2   522  LEU522      0.2616
     76  O         52.9180   48.1720  101.2450 O.2   522  LEU522     -0.2715
     77  CB        54.1870   47.6600   98.5250 C.3   522  LEU522      0.0311
     78  CG        54.4750   49.1160   98.1430 C.3   522  LEU522      0.0022
     79  CD1       55.9780   49.3740   98.1760 C.3   522  LEU522      0.0001
     80  CD2       53.8990   49.4060   96.7540 C.3   522  LEU522      0.0001
     81  N         55.0020   48.9210  101.6110 N.am  523  VAL523     -0.1977
     82  CA        54.5740   49.8720  102.6370 C.3   523  VAL523      0.1596
     83  C         54.4620   51.2930  102.0650 C.2   523  VAL523      0.2287
     84  O         54.2060   52.2560  102.7870 O.2   523  VAL523     -0.2864
     85  CB        55.5380   49.8400  103.8480 C.3   523  VAL523      0.0276
     86  CG1       55.0570   50.7750  104.9370 C.3   523  VAL523      0.0022
     87  CG2       55.6060   48.4190  104.4020 C.3   523  VAL523      0.0022
     88  N         57.4190   49.5140  107.6070 N.3   530  GLY530     -0.1210
     89  CA        56.6540   48.8340  108.6360 C.3   530  GLY530      0.1956
     90  C         56.9410   47.3420  108.6070 C.2   530  GLY530      0.2612
     91  O         57.4270   46.8220  107.5960 O.2   530  GLY530     -0.2717
     92  N         56.6750   46.6450  109.7090 N.am  531  VAL531     -0.1965
     93  CA        56.8920   45.2010  109.7400 C.3   531  VAL531      0.1727
     94  C         56.0240   44.5210  110.7890 C.2   531  VAL531      0.2616
     95  O         55.5270   45.1660  111.7200 O.2   531  VAL531     -0.2715
     96  CB        58.3740   44.8170  110.0580 C.3   531  VAL531      0.0290
     97  CG1       59.3300   45.7340  109.3340 C.3   531  VAL531      0.0023
     98  CG2       58.6210   44.8470  111.5550 C.3   531  VAL531      0.0023
     99  N         55.8290   43.2190  110.6010 N.am  532  VAL532     -0.1977
    100  CA        55.1000   42.3780  111.5420 C.3   532  VAL532      0.1596
    101  C         55.8900   41.0670  111.5950 C.2   532  VAL532      0.2287
    102  O         56.7630   40.8220  110.7580 O.2   532  VAL532     -0.2864
    103  CB        53.6350   42.0760  111.1030 C.3   532  VAL532      0.0276
    104  CG1       52.8260   43.3790  111.0330 C.3   532  VAL532      0.0022
    105  CG2       53.6090   41.3530  109.7610 C.3   532  VAL532      0.0022
    106  N         58.8400   43.0100  104.1860 N.3   542  PHE542     -0.1241
    107  CA        58.2070   44.2780  103.8680 C.3   542  PHE542      0.1605
    108  C         59.1990   45.2550  103.2890 C.2   542  PHE542      0.2264
    109  O         60.3960   45.1620  103.5390 O.2   542  PHE542     -0.2867
    110  CB        57.5510   44.8070  105.1420 C.3   542  PHE542      0.0534
    111  CG        56.7140   43.7700  105.8210 C.ar  542  PHE542     -0.0203
    112  CD1       55.4630   43.4400  105.3220 C.ar  542  PHE542     -0.0042
    113  CD2       57.2350   43.0200  106.8670 C.ar  542  PHE542     -0.0042
    114  CE1       54.7500   42.3710  105.8510 C.ar  542  PHE542     -0.0003
    115  CE2       56.5290   41.9510  107.3980 C.ar  542  PHE542     -0.0003
    116  CZ        55.2870   41.6270  106.8880 C.ar  542  PHE542     -0.0000
@<TRIPOS>BOND
     1    80    78    1
     2    78    79    1
     3    78    77    1
     4    77    74    1
     5    50    49    2
     6    49    48    1
     7    74    73    1
     8    74    75    1
     9    65    64    1
    10    73    69   am
    11    47    48    1
    12    37    36    1
    13    37    38    2
    14    35    36    1
    15    48    51    1
    16    36    39    1
    17    75    76    2
    18    75    81   am
    19    64    66    1
    20    64    61    1
    21    69    68    1
    22    69    70    2
    23    81    82    1
    24    68    67    1
    25    68    71    1
    26    51    53    1
    27    51    52    1
    28    67    62   am
    29    63    62    2
    30    83    82    1
    31    83    84    2
    32    39    40    1
    33    62    61    1
    34    72    71    1
    35    40    41   ar
    36    40    42   ar
    37    61    60    1
    38    41    43   ar
    39    82    85    1
    40    42    44   ar
    41    43    45   ar
    42    60    56   am
    43    44    45   ar
    44    45    46    1
    45   108   109    2
    46   108   107    1
    47    85    87    1
    48    85    86    1
    49   107   106    1
    50   107   110    1
    51    56    55    1
    52    56    57    2
    53    54    55    1
    54    55    58    1
    55   110   111    1
    56   112   111   ar
    57   112   114   ar
    58    29    27   ar
    59   111   113   ar
    60   114   116   ar
    61    58    59    1
    62    27    26    1
    63    27    28   ar
    64    26    23    1
    65   113   115   ar
    66   116   115   ar
    67    32    33    2
    68    32    31    1
    69    34    31    1
    70    91    90    2
    71    88    89    1
    72    30    31    1
    73    30    24   am
    74    23    24    1
    75    23    22    1
    76    24    25    2
    77    90    89    1
    78    90    92   am
    79    20    21   ar
    80    20    18   ar
    81    21    19   ar
    82    97    96    1
    83    92    93    1
    84    93    96    1
    85    93    94    1
    86   105   103    1
    87    96    98    1
    88    18    17   ar
    89    19    17   ar
    90    99    94   am
    91    99   100    1
    92   102   101    2
    93    94    95    2
    94   104   103    1
    95   103   100    1
    96    17    16    1
    97    11    10   ar
    98    11     9   ar
    99    10     8   ar
   100     9     7   ar
   101   100   101    1
   102     8     6   ar
   103     7     6   ar
   104     6     5    1
   105     5     2    1
   106    15    14    2
   107    16    13    1
   108    14    13    1
   109     2     3    1
   110     2     1    1
   111    13    12    1
   112     3     4    2
